REMARK  Name = 6ckl_ligand
REMARK  11 active torsions:
REMARK  status: ('A' for Active; 'I' for Inactive)
REMARK    1  A    between atoms: C_1  and  C_2
REMARK    2  A    between atoms: C_1  and  O_13
REMARK    3  A    between atoms: C_4  and  O_15
REMARK    4  A    between atoms: C_5  and  N_12
REMARK    5  A    between atoms: C_6  and  C_7
REMARK    6  A    between atoms: C_7  and  C_8
REMARK    7  A    between atoms: C_7  and  O_17
REMARK    8  A    between atoms: C_8  and  C_9
REMARK    9  A    between atoms: C_8  and  O_18
REMARK   10  A    between atoms: C_9  and  O_19
REMARK   11  A    between atoms: C_10  and  C_11
REMARK                            x       y       z     vdW  Elec       q    Type
REMARK                         _______ _______ _______ _____ _____    ______ ____
ROOT
ATOM      1  C   UNL     1     160.191  22.780 -18.736  0.00  0.00    +0.000 C 
ATOM      2  C   UNL     1     161.394  22.945 -19.343  0.00  0.00    +0.000 C 
ATOM      3  C   UNL     1     161.501  22.837 -20.856  0.00  0.00    +0.000 C 
ATOM      4  C   UNL     1     160.252  23.470 -21.433  0.00  0.00    +0.000 C 
ATOM      5  C   UNL     1     159.003  22.782 -20.885  0.00  0.00    +0.000 C 
ATOM      6  O   UNL     1     158.966  22.675 -19.473  0.00  0.00    +0.000 OA
ENDROOT
BRANCH   4   9
ATOM      7  C   UNL     1     159.768  24.251 -23.676  0.00  0.00    +0.000 C 
ATOM      8  C   UNL     1     159.849  23.956 -25.127  0.00  0.00    +0.000 C 
ATOM      9  N   UNL     1     160.261  23.327 -22.868  0.00  0.00    +0.000 N 
ATOM     10  O   UNL     1     159.268  25.286 -23.289  0.00  0.00    +0.000 OA
ATOM     11  H   UNL     1     160.662  22.482 -23.275  0.00  0.00    +0.000 HD
ENDBRANCH   4   9
BRANCH   1  12
ATOM     12  C   UNL     1     159.983  22.579 -17.297  0.00  0.00    +0.000 C 
ATOM     13  O   UNL     1     160.942  22.295 -16.541  0.00  0.00    +0.000 OA
BRANCH  12  14
ATOM     14  O   UNL     1     158.803  22.648 -16.852  0.00  0.00    +0.000 OA
ATOM     15  H   UNL     1     158.205  22.875 -17.568  0.00  0.00    +0.000 HD
ENDBRANCH  12  14
ENDBRANCH   1  12
BRANCH   3  16
ATOM     16  O   UNL     1     162.700  23.447 -21.404  0.00  0.00    +0.000 OA
ATOM     17  H   UNL     1     163.474  23.028 -21.022  0.00  0.00    +0.000 HD
ENDBRANCH   3  16
BRANCH   5  18
ATOM     18  C   UNL     1     157.670  23.422 -21.294  0.00  0.00    +0.000 C 
BRANCH  18  19
ATOM     19  O   UNL     1     157.623  24.809 -20.990  0.00  0.00    +0.000 OA
ATOM     20  H   UNL     1     158.382  25.247 -21.381  0.00  0.00    +0.000 HD
ENDBRANCH  18  19
BRANCH  18  21
ATOM     21  C   UNL     1     156.450  22.792 -20.651  0.00  0.00    +0.000 C 
BRANCH  21  22
ATOM     22  O   UNL     1     156.604  21.361 -20.599  0.00  0.00    +0.000 OA
ATOM     23  H   UNL     1     155.827  20.971 -20.191  0.00  0.00    +0.000 HD
ENDBRANCH  21  22
BRANCH  21  24
ATOM     24  C   UNL     1     155.288  23.166 -21.567  0.00  0.00    +0.000 C 
BRANCH  24  25
ATOM     25  O   UNL     1     154.060  22.685 -21.066  0.00  0.00    +0.000 OA
ATOM     26  H   UNL     1     153.352  22.936 -21.663  0.00  0.00    +0.000 HD
ENDBRANCH  24  25
ENDBRANCH  21  24
ENDBRANCH  18  21
ENDBRANCH   5  18
TORSDOF 10
