REMARK  Name = 6n8x_ligand
REMARK  12 active torsions:
REMARK  status: ('A' for Active; 'I' for Inactive)
REMARK    1  A    between atoms: C_4  and  C_15
REMARK    2  A    between atoms: C_7  and  C_8
REMARK    3  A    between atoms: C_8  and  C_9
REMARK    4  A    between atoms: C_9  and  C_10
REMARK    5  A    between atoms: C_10  and  N_11
REMARK    6  A    between atoms: C_15  and  C_16
REMARK    7  A    between atoms: C_19  and  O_20
REMARK    8  A    between atoms: O_20  and  C_21
REMARK    9  A    between atoms: C_22  and  O_23
REMARK   10  A    between atoms: O_23  and  C_24
REMARK   11  A    between atoms: C_25  and  O_26
REMARK   12  A    between atoms: O_26  and  C_27
REMARK                            x       y       z     vdW  Elec       q    Type
REMARK                         _______ _______ _______ _____ _____    ______ ____
ROOT
ATOM      1  C   UNL     1       0.764  10.280 221.187  0.00  0.00    +0.000 A 
ATOM      2  C   UNL     1      -0.052  10.990 220.370  0.00  0.00    +0.000 A 
ATOM      3  C   UNL     1      -1.367  11.115 220.712  0.00  0.00    +0.000 A 
ATOM      4  C   UNL     1       1.942  10.964 219.541  0.00  0.00    +0.000 A 
ATOM      5  N   UNL     1      -1.809  10.584 221.851  0.00  0.00    +0.000 NA
ATOM      6  N   UNL     1       0.352   9.717 222.334  0.00  0.00    +0.000 NA
ATOM      7  N   UNL     1       1.988  10.262 220.664  0.00  0.00    +0.000 N 
ATOM      8  C   UNL     1      -0.973   9.877 222.694  0.00  0.00    +0.000 A 
ATOM      9  N   UNL     1      -2.224  11.787 219.929  0.00  0.00    +0.000 N 
ATOM     10  N   UNL     1       0.703  11.415 219.331  0.00  0.00    +0.000 NA
ATOM     11  H   UNL     1      -1.896  12.214 219.063  0.00  0.00    +0.000 HD
ATOM     12  H   UNL     1      -3.204  11.871 220.200  0.00  0.00    +0.000 HD
ENDROOT
BRANCH   7  13
ATOM     13  C   UNL     1       3.153   9.575 221.282  0.00  0.00    +0.000 C 
BRANCH  13  14
ATOM     14  C   UNL     1       3.333   8.226 220.557  0.00  0.00    +0.000 C 
BRANCH  14  16
ATOM     15  C   UNL     1       4.929   6.645 219.263  0.00  0.00    +0.000 C 
ATOM     16  C   UNL     1       4.715   7.984 219.976  0.00  0.00    +0.000 C 
ENDBRANCH  14  16
ENDBRANCH  13  14
ENDBRANCH   7  13
BRANCH   4  17
ATOM     17  C   UNL     1       3.140  11.189 218.607  0.00  0.00    +0.000 C 
BRANCH  17  18
ATOM     18  C   UNL     1       4.282  11.808 219.231  0.00  0.00    +0.000 A 
ATOM     19  C   UNL     1       5.551  11.285 218.971  0.00  0.00    +0.000 A 
ATOM     20  C   UNL     1       4.156  12.928 220.073  0.00  0.00    +0.000 A 
ATOM     21  C   UNL     1       5.300  13.507 220.640  0.00  0.00    +0.000 A 
ATOM     22  C   UNL     1       6.552  12.972 220.362  0.00  0.00    +0.000 A 
ATOM     23  C   UNL     1       6.680  11.868 219.543  0.00  0.00    +0.000 A 
BRANCH  21  24
ATOM     24  O   UNL     1       5.260  14.585 221.479  0.00  0.00    +0.000 OA
ATOM     25  C   UNL     1       4.047  15.326 221.441  0.00  0.00    +0.000 C 
ENDBRANCH  21  24
BRANCH  22  26
ATOM     26  O   UNL     1       7.714  13.481 220.915  0.00  0.00    +0.000 OA
ATOM     27  C   UNL     1       7.978  14.844 220.579  0.00  0.00    +0.000 C 
ENDBRANCH  22  26
BRANCH  23  28
ATOM     28  O   UNL     1       7.962  11.427 219.342  0.00  0.00    +0.000 OA
ATOM     29  C   UNL     1       8.076  10.355 218.386  0.00  0.00    +0.000 C 
ENDBRANCH  23  28
ENDBRANCH  17  18
ENDBRANCH   4  17
TORSDOF 8
