REMARK  Name = 6olx_ligand
REMARK  12 active torsions:
REMARK  status: ('A' for Active; 'I' for Inactive)
REMARK    1  A    between atoms: C_4  and  C_15
REMARK    2  A    between atoms: C_7  and  C_8
REMARK    3  A    between atoms: C_8  and  C_9
REMARK    4  A    between atoms: C_9  and  C_10
REMARK    5  A    between atoms: C_10  and  N_11
REMARK    6  A    between atoms: C_15  and  C_16
REMARK    7  A    between atoms: C_19  and  O_20
REMARK    8  A    between atoms: O_20  and  C_21
REMARK    9  A    between atoms: C_22  and  O_23
REMARK   10  A    between atoms: O_23  and  C_24
REMARK   11  A    between atoms: C_25  and  O_26
REMARK   12  A    between atoms: O_26  and  C_27
REMARK                            x       y       z     vdW  Elec       q    Type
REMARK                         _______ _______ _______ _____ _____    ______ ____
ROOT
ATOM      1  C   UNL     1       0.752  10.288  25.587  0.00  0.00    +0.000 A 
ATOM      2  C   UNL     1      -0.051  10.997  24.757  0.00  0.00    +0.000 A 
ATOM      3  C   UNL     1      -1.365  11.149  25.099  0.00  0.00    +0.000 A 
ATOM      4  C   UNL     1       1.941  10.936  23.927  0.00  0.00    +0.000 A 
ATOM      5  N   UNL     1      -1.812  10.623  26.244  0.00  0.00    +0.000 NA
ATOM      6  N   UNL     1       0.338   9.732  26.744  0.00  0.00    +0.000 NA
ATOM      7  N   UNL     1       1.976  10.242  25.054  0.00  0.00    +0.000 N 
ATOM      8  C   UNL     1      -0.987   9.915  27.101  0.00  0.00    +0.000 A 
ATOM      9  N   UNL     1      -2.208  11.816  24.302  0.00  0.00    +0.000 N 
ATOM     10  N   UNL     1       0.706  11.399  23.710  0.00  0.00    +0.000 NA
ATOM     11  H   UNL     1      -1.872  12.218  23.427  0.00  0.00    +0.000 HD
ATOM     12  H   UNL     1      -3.187  11.922  24.570  0.00  0.00    +0.000 HD
ENDROOT
BRANCH   7  13
ATOM     13  C   UNL     1       3.159   9.553  25.657  0.00  0.00    +0.000 C 
BRANCH  13  14
ATOM     14  C   UNL     1       3.330   8.203  24.933  0.00  0.00    +0.000 C 
BRANCH  14  16
ATOM     15  C   UNL     1       4.932   6.607  23.652  0.00  0.00    +0.000 C 
ATOM     16  C   UNL     1       4.715   7.942  24.362  0.00  0.00    +0.000 C 
ENDBRANCH  14  16
ENDBRANCH  13  14
ENDBRANCH   7  13
BRANCH   4  17
ATOM     17  C   UNL     1       3.142  11.143  22.987  0.00  0.00    +0.000 C 
BRANCH  17  18
ATOM     18  C   UNL     1       4.287  11.780  23.606  0.00  0.00    +0.000 A 
ATOM     19  C   UNL     1       5.556  11.249  23.352  0.00  0.00    +0.000 A 
ATOM     20  C   UNL     1       4.170  12.910  24.435  0.00  0.00    +0.000 A 
ATOM     21  C   UNL     1       5.309  13.497  24.997  0.00  0.00    +0.000 A 
ATOM     22  C   UNL     1       6.559  12.953  24.715  0.00  0.00    +0.000 A 
ATOM     23  C   UNL     1       6.684  11.842  23.916  0.00  0.00    +0.000 A 
BRANCH  21  24
ATOM     24  O   UNL     1       5.280  14.592  25.827  0.00  0.00    +0.000 OA
ATOM     25  C   UNL     1       4.077  15.345  25.795  0.00  0.00    +0.000 C 
ENDBRANCH  21  24
BRANCH  22  26
ATOM     26  O   UNL     1       7.732  13.459  25.255  0.00  0.00    +0.000 OA
ATOM     27  C   UNL     1       8.018  14.820  24.936  0.00  0.00    +0.000 C 
ENDBRANCH  22  26
BRANCH  23  28
ATOM     28  O   UNL     1       7.974  11.400  23.717  0.00  0.00    +0.000 OA
ATOM     29  C   UNL     1       8.095  10.348  22.745  0.00  0.00    +0.000 C 
ENDBRANCH  23  28
ENDBRANCH  17  18
ENDBRANCH   4  17
TORSDOF 8
