REMARK  Name = 6kqi_ligand
REMARK  16 active torsions:
REMARK  status: ('A' for Active; 'I' for Inactive)
REMARK    1  A    between atoms: C_1  and  C_2
REMARK    2  A    between atoms: C_2  and  C_3
REMARK    3  A    between atoms: C_3  and  C_4
REMARK    4  A    between atoms: C_4  and  C_5
REMARK    5  A    between atoms: C_5  and  C_6
REMARK    6  A    between atoms: C_6  and  C_7
REMARK    7  A    between atoms: C_7  and  C_8
REMARK    8  A    between atoms: C_7  and  C_9
REMARK    9  A    between atoms: C_7  and  C_10
REMARK   10  A    between atoms: C_13  and  C_14
REMARK   11  A    between atoms: C_16  and  O_25
REMARK   12  A    between atoms: C_19  and  C_20
REMARK   13  A    between atoms: C_20  and  C_21
REMARK   14  A    between atoms: C_21  and  C_22
REMARK   15  A    between atoms: C_22  and  O_26
REMARK   16  A    between atoms: C_23  and  O_27
REMARK                            x       y       z     vdW  Elec       q    Type
REMARK                         _______ _______ _______ _____ _____    ______ ____
ROOT
ATOM      1  C   UNL     1      24.952  -6.927  39.456  0.00  0.00    +0.000 A 
ATOM      2  C   UNL     1      25.869  -7.537  40.309  0.00  0.00    +0.000 A 
ATOM      3  C   UNL     1      26.499  -8.722  39.934  0.00  0.00    +0.000 A 
ATOM      4  C   UNL     1      26.244  -9.308  38.692  0.00  0.00    +0.000 A 
ATOM      5  C   UNL     1      25.319  -8.696  37.852  0.00  0.00    +0.000 A 
ATOM      6  C   UNL     1      24.681  -7.519  38.224  0.00  0.00    +0.000 A 
ENDROOT
BRANCH   4   7
ATOM      7  C   UNL     1      26.850 -10.507  38.278  0.00  0.00    +0.000 C 
ATOM      8  C   UNL     1      25.892 -11.640  38.626  0.00  0.00    +0.000 C 
ATOM      9  C   UNL     1      26.439 -12.964  38.150  0.00  0.00    +0.000 C 
ATOM     10  C   UNL     1      27.758 -13.223  38.832  0.00  0.00    +0.000 C 
ATOM     11  C   UNL     1      28.744 -12.128  38.473  0.00  0.00    +0.000 C 
ATOM     12  C   UNL     1      28.226 -10.775  38.937  0.00  0.00    +0.000 C 
BRANCH   9  13
ATOM     13  O   UNL     1      25.522 -14.004  38.504  0.00  0.00    +0.000 OA
ATOM     14  H   UNL     1      25.866 -14.848  38.203  0.00  0.00    +0.000 HD
ENDBRANCH   9  13
BRANCH  12  15
ATOM     15  C   UNL     1      29.283  -9.724  38.559  0.00  0.00    +0.000 C 
BRANCH  15  16
ATOM     16  C   UNL     1      30.474  -9.819  39.521  0.00  0.00    +0.000 C 
BRANCH  16  17
ATOM     17  C   UNL     1      30.265  -8.838  40.680  0.00  0.00    +0.000 C 
BRANCH  17  18
ATOM     18  O   UNL     1      31.426  -8.807  41.515  0.00  0.00    +0.000 OA
ATOM     19  H   UNL     1      31.284  -8.190  42.236  0.00  0.00    +0.000 HD
ENDBRANCH  17  18
ENDBRANCH  16  17
ENDBRANCH  15  16
ENDBRANCH  12  15
ENDBRANCH   4   7
BRANCH   1  20
ATOM     20  C   UNL     1      24.306  -5.736  39.828  0.00  0.00    +0.000 C 
ATOM     21  C   UNL     1      25.350  -4.707  40.260  0.00  0.00    +0.000 C 
ATOM     22  C   UNL     1      23.522  -5.166  38.641  0.00  0.00    +0.000 C 
BRANCH  20  23
ATOM     23  C   UNL     1      23.306  -6.026  40.958  0.00  0.00    +0.000 C 
BRANCH  23  24
ATOM     24  C   UNL     1      23.850  -5.658  42.343  0.00  0.00    +0.000 C 
BRANCH  24  25
ATOM     25  C   UNL     1      23.777  -6.880  43.263  0.00  0.00    +0.000 C 
BRANCH  25  26
ATOM     26  C   UNL     1      22.829  -6.624  44.444  0.00  0.00    +0.000 C 
BRANCH  26  28
ATOM     27  C   UNL     1      21.906  -7.737  46.505  0.00  0.00    +0.000 C 
ATOM     28  C   UNL     1      23.072  -7.697  45.517  0.00  0.00    +0.000 C 
ENDBRANCH  26  28
ENDBRANCH  25  26
ENDBRANCH  24  25
ENDBRANCH  23  24
ENDBRANCH  20  23
ENDBRANCH   1  20
BRANCH   5  29
ATOM     29  O   UNL     1      25.081  -9.300  36.653  0.00  0.00    +0.000 OA
ATOM     30  H   UNL     1      24.430  -8.791  36.163  0.00  0.00    +0.000 HD
ENDBRANCH   5  29
TORSDOF 13
