REMARK  Name = 6qts_ligand
REMARK  31 active torsions:
REMARK  status: ('A' for Active; 'I' for Inactive)
REMARK    1  A    between atoms: N_1  and  CA_2
REMARK    2  A    between atoms: CA_2  and  C_3
REMARK    3  A    between atoms: CA_2  and  CB_5
REMARK    4  A    between atoms: CB_5  and  CG_6
REMARK    5  A    between atoms: CG_6  and  CD_7
REMARK    6  A    between atoms: CD_7  and  NE_8
REMARK    7  A    between atoms: N_12  and  CA_13
REMARK    8  A    between atoms: CA_13  and  C_14
REMARK    9  A    between atoms: CA_13  and  CB_16
REMARK   10  A    between atoms: CB_16  and  CG_17
REMARK   11  A    between atoms: CZ_22  and  OH_23
REMARK   12  A    between atoms: N_24  and  CA_25
REMARK   13  A    between atoms: CA_25  and  C_26
REMARK   14  A    between atoms: CA_25  and  CB_28
REMARK   15  A    between atoms: N_29  and  CA_30
REMARK   16  A    between atoms: CA_30  and  C_31
REMARK   17  A    between atoms: CA_30  and  CB_33
REMARK   18  A    between atoms: CB_33  and  CG1_34
REMARK   19  A    between atoms: CB_33  and  CG2_35
REMARK   20  A    between atoms: N_36  and  CA_37
REMARK   21  A    between atoms: CA_37  and  C_38
REMARK   22  A    between atoms: CA_37  and  CB_40
REMARK   23  A    between atoms: CB_40  and  CG1_41
REMARK   24  A    between atoms: CB_40  and  CG2_42
REMARK   25  A    between atoms: CA_44  and  C_45
REMARK   26  A    between atoms: N_50  and  CA_51
REMARK   27  A    between atoms: CA_51  and  C_52
REMARK   28  A    between atoms: CA_51  and  CB_54
REMARK   29  A    between atoms: C_52  and  OXT_58
REMARK   30  A    between atoms: CB_54  and  CG_55
REMARK   31  A    between atoms: CG_55  and  OD1_56
REMARK                            x       y       z     vdW  Elec       q    Type
REMARK                         _______ _______ _______ _____ _____    ______ ____
ROOT
ATOM      1  C   ALA A   3      -5.477   3.135 -24.073  0.00  0.00    +0.000 C 
ATOM      2  O   ALA A   3      -6.533   3.722 -24.319  0.00  0.00    +0.000 OA
ATOM      3  N   VAL A   4      -4.977   2.209 -24.881  0.00  0.00    +0.000 N 
ATOM      4  H   VAL A   4      -4.069   1.804 -24.655  0.00  0.00    +0.000 HD
ENDROOT
BRANCH   1   5
ATOM      5  CA  ALA A   3      -4.695   3.447 -22.806  0.00  0.00    +0.000 C 
ATOM      6  CB  ALA A   3      -5.054   4.830 -22.256  0.00  0.00    +0.000 C 
BRANCH   5   9
ATOM      7  C   TYR A   2      -2.572   4.003 -23.879  0.00  0.00    +0.000 C 
ATOM      8  O   TYR A   2      -3.088   4.798 -24.669  0.00  0.00    +0.000 OA
ATOM      9  N   ALA A   3      -3.260   3.289 -22.995  0.00  0.00    +0.000 N 
ATOM     10  H   ALA A   3      -2.764   2.603 -22.426  0.00  0.00    +0.000 HD
BRANCH   7  11
ATOM     11  CA  TYR A   2      -1.072   3.767 -23.875  0.00  0.00    +0.000 C 
BRANCH  11  14
ATOM     12  C   ARG A   1      -0.067   2.726 -25.845  0.00  0.00    +0.000 C 
ATOM     13  O   ARG A   1      -0.111   1.598 -25.360  0.00  0.00    +0.000 OA
ATOM     14  N   TYR A   2      -0.552   3.798 -25.233  0.00  0.00    +0.000 N 
ATOM     15  H   TYR A   2      -0.561   4.684 -25.738  0.00  0.00    +0.000 HD
BRANCH  12  16
ATOM     16  CA  ARG A   1       0.553   2.972 -27.215  0.00  0.00    +0.000 C 
BRANCH  16  17
ATOM     17  N   ARG A   1       1.839   2.300 -27.339  0.00  0.00    +0.000 N 
ATOM     18  H1  ARG A   1       2.463   2.623 -26.599  0.00  0.00    +0.000 HD
ATOM     19  H2  ARG A   1       1.704   1.292 -27.256  0.00  0.00    +0.000 HD
ATOM     20  H3  ARG A   1       2.248   2.515 -28.248  0.00  0.00    +0.000 HD
ENDBRANCH  16  17
BRANCH  16  21
ATOM     21  CB  ARG A   1      -0.408   2.510 -28.310  0.00  0.00    +0.000 C 
BRANCH  21  22
ATOM     22  CG  ARG A   1      -0.066   3.048 -29.687  0.00  0.00    +0.000 C 
BRANCH  22  23
ATOM     23  CD  ARG A   1      -1.313   3.218 -30.544  0.00  0.00    +0.000 C 
BRANCH  23  24
ATOM     24  NE  ARG A   1      -1.916   1.945 -30.929  0.00  0.00    +0.000 N 
ATOM     25  CZ  ARG A   1      -3.059   1.833 -31.601  0.00  0.00    +0.000 C 
ATOM     26  NH1 ARG A   1      -3.731   2.918 -31.958  0.00  0.00    +0.000 NA
ATOM     27  NH2 ARG A   1      -3.532   0.635 -31.913  0.00  0.00    +0.000 N 
ATOM     28  HE  ARG A   1      -1.430   1.087 -30.666  0.00  0.00    +0.000 HD
ATOM     29  HH1 ARG A   1      -3.372   3.842 -31.718  0.00  0.00    +0.000 HD
ATOM     30 HH21 ARG A   1      -4.410   0.551 -32.426  0.00  0.00    +0.000 HD
ATOM     31 HH22 ARG A   1      -3.018  -0.203 -31.640  0.00  0.00    +0.000 HD
ENDBRANCH  23  24
ENDBRANCH  22  23
ENDBRANCH  21  22
ENDBRANCH  16  21
ENDBRANCH  12  16
ENDBRANCH  11  14
BRANCH  11  32
ATOM     32  CB  TYR A   2      -0.373   4.834 -23.030  0.00  0.00    +0.000 C 
BRANCH  32  33
ATOM     33  CG  TYR A   2       1.086   4.533 -22.784  0.00  0.00    +0.000 A 
ATOM     34  CD1 TYR A   2       1.458   3.538 -21.893  0.00  0.00    +0.000 A 
ATOM     35  CD2 TYR A   2       2.084   5.231 -23.444  0.00  0.00    +0.000 A 
ATOM     36  CE1 TYR A   2       2.779   3.248 -21.659  0.00  0.00    +0.000 A 
ATOM     37  CE2 TYR A   2       3.412   4.947 -23.218  0.00  0.00    +0.000 A 
ATOM     38  CZ  TYR A   2       3.753   3.953 -22.327  0.00  0.00    +0.000 A 
BRANCH  38  39
ATOM     39  OH  TYR A   2       5.076   3.666 -22.095  0.00  0.00    +0.000 OA
ATOM     40  HH  TYR A   2       5.626   4.240 -22.633  0.00  0.00    +0.000 HD
ENDBRANCH  38  39
ENDBRANCH  32  33
ENDBRANCH  11  32
ENDBRANCH   7  11
ENDBRANCH   5   9
ENDBRANCH   1   5
BRANCH   3  41
ATOM     41  CA  VAL A   4      -5.667   1.745 -26.076  0.00  0.00    +0.000 C 
BRANCH  41  42
ATOM     42  C   VAL A   4      -6.222   0.355 -25.791  0.00  0.00    +0.000 C 
ATOM     43  O   VAL A   4      -5.485  -0.543 -25.369  0.00  0.00    +0.000 OA
ATOM     44  N   VAL A   5      -7.519   0.189 -25.998  0.00  0.00    +0.000 N 
ATOM     45  H   VAL A   5      -8.067   0.961 -26.378  0.00  0.00    +0.000 HD
BRANCH  44  46
ATOM     46  CA  VAL A   5      -8.185  -1.082 -25.692  0.00  0.00    +0.000 C 
BRANCH  46  47
ATOM     47  C   VAL A   5      -7.736  -2.136 -26.690  0.00  0.00    +0.000 C 
ATOM     48  O   VAL A   5      -7.649  -1.845 -27.894  0.00  0.00    +0.000 OA
ATOM     49  N   PRO A   6      -7.441  -3.357 -26.254  0.00  0.00    +0.000 N 
ATOM     50  CA  PRO A   6      -7.156  -4.428 -27.220  0.00  0.00    +0.000 C 
ATOM     51  CB  PRO A   6      -7.006  -5.672 -26.339  0.00  0.00    +0.000 C 
ATOM     52  CG  PRO A   6      -6.786  -5.191 -24.963  0.00  0.00    +0.000 C 
ATOM     53  CD  PRO A   6      -7.329  -3.797 -24.854  0.00  0.00    +0.000 C 
BRANCH  50  54
ATOM     54  C   PRO A   6      -8.311  -4.587 -28.200  0.00  0.00    +0.000 C 
ATOM     55  O   PRO A   6      -9.481  -4.437 -27.839  0.00  0.00    +0.000 OA
ATOM     56  N   ASP A   7      -7.983  -4.898 -29.447  0.00  0.00    +0.000 N 
ATOM     57  H   ASP A   7      -7.000  -4.979 -29.705  0.00  0.00    +0.000 HD
BRANCH  56  58
ATOM     58  CA  ASP A   7      -9.018  -5.126 -30.456  0.00  0.00    +0.000 C 
BRANCH  58  59
ATOM     59  C   ASP A   7     -10.040  -6.146 -29.951  0.00  0.00    +0.000 C 
ATOM     60  O   ASP A   7      -9.811  -7.357 -30.010  0.00  0.00    +0.000 OA
BRANCH  59  61
ATOM     61  OXT ASP A   7     -11.118  -5.782 -29.473  0.00  0.00    +0.000 OA
ATOM     62  HXT ASP A   7     -11.166  -4.823 -29.487  0.00  0.00    +0.000 HD
ENDBRANCH  59  61
ENDBRANCH  58  59
BRANCH  58  63
ATOM     63  CB  ASP A   7      -8.409  -5.622 -31.767  0.00  0.00    +0.000 C 
BRANCH  63  64
ATOM     64  CG  ASP A   7      -7.254  -4.764 -32.233  0.00  0.00    +0.000 C 
ATOM     65  OD2 ASP A   7      -7.460  -3.919 -33.128  0.00  0.00    +0.000 OA
BRANCH  64  66
ATOM     66  OD1 ASP A   7      -6.137  -4.935 -31.700  0.00  0.00    +0.000 OA
ATOM     67  HD1 ASP A   7      -6.201  -5.630 -31.041  0.00  0.00    +0.000 HD
ENDBRANCH  64  66
ENDBRANCH  63  64
ENDBRANCH  58  63
ENDBRANCH  56  58
ENDBRANCH  50  54
ENDBRANCH  46  47
BRANCH  46  68
ATOM     68  CB  VAL A   5      -9.703  -0.889 -25.732  0.00  0.00    +0.000 C 
ATOM     69  CG1 VAL A   5     -10.423  -2.192 -25.463  0.00  0.00    +0.000 C 
ATOM     70  CG2 VAL A   5     -10.144   0.162 -24.714  0.00  0.00    +0.000 C 
ENDBRANCH  46  68
ENDBRANCH  44  46
ENDBRANCH  41  42
BRANCH  41  71
ATOM     71  CB  VAL A   4      -4.744   1.749 -27.300  0.00  0.00    +0.000 C 
ATOM     72  CG1 VAL A   4      -5.460   1.145 -28.488  0.00  0.00    +0.000 C 
ATOM     73  CG2 VAL A   4      -4.303   3.160 -27.614  0.00  0.00    +0.000 C 
ENDBRANCH  41  71
ENDBRANCH   3  41
TORSDOF 26
