REMARK  Name = 6nv9_ligand
REMARK  19 active torsions:
REMARK  status: ('A' for Active; 'I' for Inactive)
REMARK    1  A    between atoms: C_16  and  C_17
REMARK    2  A    between atoms: C_17  and  N_18
REMARK    3  A    between atoms: N_18  and  C_19
REMARK    4  A    between atoms: C_19  and  C_20
REMARK    5  A    between atoms: C_19  and  C_27
REMARK    6  A    between atoms: N_21  and  C_22
REMARK    7  A    between atoms: C_22  and  C_23
REMARK    8  A    between atoms: C_23  and  C_24
REMARK    9  A    between atoms: C_23  and  C_25
REMARK   10  A    between atoms: C_27  and  O_28
REMARK   11  A    between atoms: C_27  and  C_29
REMARK   12  A    between atoms: C_29  and  C_30
REMARK   13  A    between atoms: C_30  and  C_31
REMARK   14  A    between atoms: C_35  and  N_36
REMARK   15  A    between atoms: N_36  and  C_37
REMARK   16  A    between atoms: N_36  and  S_40
REMARK   17  A    between atoms: C_37  and  C_38
REMARK   18  A    between atoms: C_38  and  C_39
REMARK   19  A    between atoms: S_40  and  C_42
REMARK                            x       y       z     vdW  Elec       q    Type
REMARK                         _______ _______ _______ _____ _____    ______ ____
ROOT
ATOM      1  O   UNL     1      -0.375 -19.101  34.773  0.00  0.00    +0.000 OA
ATOM      2  C   UNL     1      -0.735 -18.855  33.597  0.00  0.00    +0.000 C 
ATOM      3  C   UNL     1       0.283 -18.686  32.598  0.00  0.00    +0.000 A 
ATOM      4  C   UNL     1       0.097 -17.733  31.570  0.00  0.00    +0.000 A 
ATOM      5  C   UNL     1       1.093 -17.519  30.576  0.00  0.00    +0.000 A 
ATOM      6  C   UNL     1       0.911 -16.501  29.422  0.00  0.00    +0.000 C 
ATOM      7  C   UNL     1      -0.264 -15.528  29.496  0.00  0.00    +0.000 C 
ATOM      8  C   UNL     1      -1.640 -15.948  29.022  0.00  0.00    +0.000 C 
ATOM      9  C   UNL     1      -2.764 -15.052  29.617  0.00  0.00    +0.000 C 
ATOM     10  C   UNL     1      -2.918 -15.177  31.141  0.00  0.00    +0.000 A 
ATOM     11  C   UNL     1      -2.447 -14.191  31.997  0.00  0.00    +0.000 A 
ATOM     12  C   UNL     1      -2.577 -14.333  33.398  0.00  0.00    +0.000 A 
ATOM     13  C   UNL     1      -3.169 -15.494  33.956  0.00  0.00    +0.000 A 
ATOM     14  C   UNL     1      -3.674 -16.512  33.109  0.00  0.00    +0.000 A 
ATOM     15  C   UNL     1      -4.287 -17.783  33.674  0.00  0.00    +0.000 C 
ATOM     16  C   UNL     1      -3.228 -18.744  34.292  0.00  0.00    +0.000 C 
ATOM     17  N   UNL     1      -2.092 -18.718  33.351  0.00  0.00    +0.000 N 
ATOM     18  C   UNL     1      -3.492 -16.318  31.728  0.00  0.00    +0.000 A 
ATOM     19  C   UNL     1       2.276 -18.270  30.681  0.00  0.00    +0.000 A 
ATOM     20  C   UNL     1       2.489 -19.201  31.703  0.00  0.00    +0.000 A 
ATOM     21  C   UNL     1       1.490 -19.372  32.634  0.00  0.00    +0.000 A 
ATOM     22  H   UNL     1      -2.343 -18.578  32.372  0.00  0.00    +0.000 HD
ENDROOT
BRANCH  16  23
ATOM     23  C   UNL     1      -3.717 -20.206  34.594  0.00  0.00    +0.000 C 
BRANCH  23  24
ATOM     24  N   UNL     1      -2.579 -21.030  35.042  0.00  0.00    +0.000 N 
ATOM     25  H   UNL     1      -1.815 -20.402  35.291  0.00  0.00    +0.000 HD
ATOM     26  H   UNL     1      -2.333 -21.665  34.283  0.00  0.00    +0.000 HD
BRANCH  24  27
ATOM     27  C   UNL     1      -2.903 -21.849  36.235  0.00  0.00    +0.000 C 
BRANCH  27  28
ATOM     28  C   UNL     1      -2.979 -20.980  37.466  0.00  0.00    +0.000 C 
ATOM     29  N   UNL     1      -3.953 -21.067  38.407  0.00  0.00    +0.000 N 
ATOM     30  O   UNL     1      -2.068 -20.113  37.604  0.00  0.00    +0.000 OA
ATOM     31  H   UNL     1      -4.697 -21.746  38.248  0.00  0.00    +0.000 HD
BRANCH  29  32
ATOM     32  C   UNL     1      -4.025 -20.272  39.626  0.00  0.00    +0.000 C 
BRANCH  32  33
ATOM     33  C   UNL     1      -5.253 -20.510  40.572  0.00  0.00    +0.000 C 
ATOM     34  C   UNL     1      -4.850 -20.154  42.001  0.00  0.00    +0.000 C 
ATOM     35  C   UNL     1      -5.772 -21.907  40.596  0.00  0.00    +0.000 C 
ENDBRANCH  32  33
ENDBRANCH  29  32
ENDBRANCH  27  28
BRANCH  27  36
ATOM     36  C   UNL     1      -1.759 -22.879  36.378  0.00  0.00    +0.000 C 
BRANCH  36  37
ATOM     37  O   UNL     1      -0.556 -22.122  36.215  0.00  0.00    +0.000 OA
ATOM     38  H   UNL     1       0.202 -22.706  36.293  0.00  0.00    +0.000 HD
ENDBRANCH  36  37
BRANCH  36  39
ATOM     39  C   UNL     1      -1.687 -23.561  37.762  0.00  0.00    +0.000 C 
BRANCH  39  40
ATOM     40  C   UNL     1      -0.514 -24.558  37.815  0.00  0.00    +0.000 C 
ATOM     41  C   UNL     1      -0.538 -25.494  39.031  0.00  0.00    +0.000 C 
ENDBRANCH  39  40
ENDBRANCH  36  39
ENDBRANCH  27  36
ENDBRANCH  24  27
ENDBRANCH  23  24
ENDBRANCH  16  23
BRANCH  20  42
ATOM     42  N   UNL     1       3.697 -19.917  31.769  0.00  0.00    +0.000 N 
BRANCH  42  43
ATOM     43  S   UNL     1       4.456 -20.462  30.360  0.00  0.00    +0.000 S 
ATOM     44  O   UNL     1       3.470 -20.695  29.364  0.00  0.00    +0.000 OA
ATOM     45  C   UNL     1       5.228 -21.770  30.741  0.00  0.00    +0.000 C 
ATOM     46  O   UNL     1       5.436 -19.499  29.937  0.00  0.00    +0.000 OA
ENDBRANCH  42  43
BRANCH  42  47
ATOM     47  C   UNL     1       4.313 -20.205  33.161  0.00  0.00    +0.000 C 
BRANCH  47  48
ATOM     48  C   UNL     1       4.764 -18.960  33.936  0.00  0.00    +0.000 C 
ATOM     49  C   UNL     1       5.466 -17.919  33.121  0.00  0.00    +0.000 C 
ENDBRANCH  47  48
ENDBRANCH  42  47
ENDBRANCH  20  42
TORSDOF 14
