REMARK  Name = 6qqz_ligand
REMARK  4 active torsions:
REMARK  status: ('A' for Active; 'I' for Inactive)
REMARK    1  A    between atoms: C_3  and  C_21
REMARK    2  A    between atoms: C_12  and  C_16
REMARK    3  A    between atoms: C_13  and  C_14
REMARK    4  A    between atoms: N_20  and  C_21
REMARK                            x       y       z     vdW  Elec       q    Type
REMARK                         _______ _______ _______ _____ _____    ______ ____
ROOT
ATOM      1  C   UNL     1     -23.015  18.246 -11.853  0.00  0.00    +0.000 A 
ATOM      2  C   UNL     1     -23.455  21.013 -11.237  0.00  0.00    +0.000 A 
ATOM      3  C   UNL     1     -25.636  20.832 -10.678  0.00  0.00    +0.000 A 
ATOM      4  C   UNL     1     -21.962  19.196 -11.975  0.00  0.00    +0.000 A 
ATOM      5  C   UNL     1     -24.298  18.690 -11.436  0.00  0.00    +0.000 A 
ATOM      6  C   UNL     1     -24.514  20.077 -11.123  0.00  0.00    +0.000 A 
ATOM      7  C   UNL     1     -22.151  20.573 -11.641  0.00  0.00    +0.000 A 
ATOM      8  N   UNL     1     -23.931  22.258 -10.871  0.00  0.00    +0.000 N 
ATOM      9  C   UNL     1     -25.245  22.191 -10.539  0.00  0.00    +0.000 A 
ENDROOT
BRANCH   4  14
ATOM     10  N   UNL     1     -17.719  16.647 -12.923  0.00  0.00    +0.000 N 
ATOM     11  C   UNL     1     -18.629  17.700 -12.695  0.00  0.00    +0.000 C 
ATOM     12  N   UNL     1     -18.383  18.960 -12.588  0.00  0.00    +0.000 NA
ATOM     13  N   UNL     1     -19.566  19.613 -12.336  0.00  0.00    +0.000 NA
ATOM     14  C   UNL     1     -20.548  18.758 -12.326  0.00  0.00    +0.000 C 
ATOM     15  C   UNL     1     -20.028  17.521 -12.489  0.00  0.00    +0.000 C 
ATOM     16  H   UNL     1     -16.724  16.846 -13.025  0.00  0.00    +0.000 HD
ATOM     17  H   UNL     1     -18.056  15.686 -12.986  0.00  0.00    +0.000 HD
BRANCH  15  18
ATOM     18  C   UNL     1     -20.673  16.158 -12.549  0.00  0.00    +0.000 C 
ATOM     19  N   UNL     1     -21.116  15.107 -12.600  0.00  0.00    +0.000 NA
ENDBRANCH  15  18
ENDBRANCH   4  14
BRANCH   8  20
ATOM     20  C   UNL     1     -23.125  23.513 -10.858  0.00  0.00    +0.000 C 
BRANCH  20  21
ATOM     21  C   UNL     1     -22.239  23.633  -9.565  0.00  0.00    +0.000 A 
ATOM     22  C   UNL     1     -20.744  23.838  -7.268  0.00  0.00    +0.000 A 
ATOM     23  C   UNL     1     -20.264  24.455  -8.438  0.00  0.00    +0.000 A 
ATOM     24  C   UNL     1     -21.041  24.356  -9.628  0.00  0.00    +0.000 A 
ATOM     25  C   UNL     1     -22.650  23.045  -8.323  0.00  0.00    +0.000 A 
ATOM     26  N   UNL     1     -21.900  23.173  -7.247  0.00  0.00    +0.000 NA
ENDBRANCH  20  21
ENDBRANCH   8  20
TORSDOF 4
