REMARK  Name = 6jap_ligand
REMARK  13 active torsions:
REMARK  status: ('A' for Active; 'I' for Inactive)
REMARK    1  A    between atoms: C_1  and  O_7
REMARK    2  A    between atoms: C_2  and  O_8
REMARK    3  A    between atoms: C_3  and  O_9
REMARK    4  A    between atoms: C_4  and  O_10
REMARK    5  A    between atoms: C_5  and  C_6
REMARK    6  A    between atoms: C_6  and  O_12
REMARK    7  A    between atoms: O_7  and  C_14
REMARK    8  A    between atoms: C_13  and  C_14
REMARK    9  A    between atoms: C_13  and  O_19
REMARK   10  A    between atoms: C_15  and  O_21
REMARK   11  A    between atoms: C_16  and  O_22
REMARK   12  A    between atoms: C_17  and  C_18
REMARK   13  A    between atoms: C_18  and  O_23
REMARK                            x       y       z     vdW  Elec       q    Type
REMARK                         _______ _______ _______ _____ _____    ______ ____
ROOT
ATOM      1  O   UNL     1      -7.053 -33.511 -14.898  0.00  0.00    +0.000 OA
ENDROOT
BRANCH   1   2
ATOM      2  C   UNL     1      -6.840 -32.585 -13.807  0.00  0.00    +0.000 C 
ATOM      3  C   UNL     1      -8.178 -32.233 -13.138  0.00  0.00    +0.000 C 
ATOM      4  C   UNL     1      -9.042 -31.297 -14.006  0.00  0.00    +0.000 C 
ATOM      5  C   UNL     1      -8.216 -30.050 -14.317  0.00  0.00    +0.000 C 
ATOM      6  C   UNL     1      -6.851 -30.452 -14.952  0.00  0.00    +0.000 C 
ATOM      7  O   UNL     1      -6.124 -31.398 -14.152  0.00  0.00    +0.000 OA
BRANCH   3   8
ATOM      8  O   UNL     1      -8.985 -33.406 -12.980  0.00  0.00    +0.000 OA
ATOM      9  H   UNL     1      -8.513 -34.048 -12.444  0.00  0.00    +0.000 HD
ENDBRANCH   3   8
BRANCH   4  10
ATOM     10  O   UNL     1     -10.210 -30.900 -13.291  0.00  0.00    +0.000 OA
ATOM     11  H   UNL     1     -10.739 -31.675 -13.089  0.00  0.00    +0.000 HD
ENDBRANCH   4  10
BRANCH   5  12
ATOM     12  O   UNL     1      -8.914 -29.068 -15.101  0.00  0.00    +0.000 OA
ATOM     13  H   UNL     1      -9.746 -28.851 -14.674  0.00  0.00    +0.000 HD
ENDBRANCH   5  12
BRANCH   6  14
ATOM     14  C   UNL     1      -5.977 -29.252 -15.205  0.00  0.00    +0.000 C 
BRANCH  14  15
ATOM     15  O   UNL     1      -4.776 -29.527 -15.982  0.00  0.00    +0.000 OA
ATOM     16  H   UNL     1      -4.278 -28.715 -16.098  0.00  0.00    +0.000 HD
ENDBRANCH  14  15
ENDBRANCH   6  14
ENDBRANCH   1   2
BRANCH   1  17
ATOM     17  C   UNL     1      -5.973 -34.288 -15.388  0.00  0.00    +0.000 C 
ATOM     18  C   UNL     1      -5.609 -35.546 -14.545  0.00  0.00    +0.000 C 
ATOM     19  C   UNL     1      -6.611 -36.540 -15.085  0.00  0.00    +0.000 C 
ATOM     20  C   UNL     1      -6.497 -36.198 -16.581  0.00  0.00    +0.000 C 
ATOM     21  O   UNL     1      -6.442 -34.749 -16.631  0.00  0.00    +0.000 OA
BRANCH  18  22
ATOM     22  O   UNL     1      -5.698 -35.380 -13.144  0.00  0.00    +0.000 OA
ATOM     23  H   UNL     1      -5.457 -36.202 -12.710  0.00  0.00    +0.000 HD
ENDBRANCH  18  22
BRANCH  19  24
ATOM     24  O   UNL     1      -6.397 -37.910 -14.738  0.00  0.00    +0.000 OA
ATOM     25  H   UNL     1      -7.087 -38.450 -15.131  0.00  0.00    +0.000 HD
ENDBRANCH  19  24
BRANCH  17  26
ATOM     26  C   UNL     1      -4.723 -33.382 -15.648  0.00  0.00    +0.000 C 
BRANCH  26  27
ATOM     27  O   UNL     1      -3.718 -34.158 -16.307  0.00  0.00    +0.000 OA
ATOM     28  H   UNL     1      -2.947 -33.609 -16.470  0.00  0.00    +0.000 HD
ENDBRANCH  26  27
ENDBRANCH  17  26
BRANCH  20  29
ATOM     29  C   UNL     1      -7.723 -36.594 -17.335  0.00  0.00    +0.000 C 
BRANCH  29  30
ATOM     30  O   UNL     1      -7.567 -36.525 -18.760  0.00  0.00    +0.000 OA
ATOM     31  H   UNL     1      -8.386 -36.791 -19.184  0.00  0.00    +0.000 HD
ENDBRANCH  29  30
ENDBRANCH  20  29
ENDBRANCH   1  17
TORSDOF 13
