REMARK  Name = 6n4e_ligand
REMARK  8 active torsions:
REMARK  status: ('A' for Active; 'I' for Inactive)
REMARK    1  A    between atoms: C_1  and  C_18
REMARK    2  A    between atoms: C_2  and  C_18
REMARK    3  A    between atoms: C_3  and  C_18
REMARK    4  A    between atoms: C_7  and  C_8
REMARK    5  A    between atoms: C_12  and  O_25
REMARK    6  A    between atoms: C_13  and  O_25
REMARK    7  A    between atoms: C_18  and  O_19
REMARK    8  A    between atoms: C_21  and  N_22
REMARK                            x       y       z     vdW  Elec       q    Type
REMARK                         _______ _______ _______ _____ _____    ______ ____
ROOT
ATOM      1  C   UNL     1       9.479  28.367 -13.608  0.00  0.00    +0.000 C 
ATOM      2  N   UNL     1      10.332  28.234 -14.699  0.00  0.00    +0.000 N 
ATOM      3  O   UNL     1       9.635  29.201 -12.713  0.00  0.00    +0.000 OA
ATOM      4  H   UNL     1      10.141  27.502 -15.383  0.00  0.00    +0.000 HD
ENDROOT
BRANCH   1   5
ATOM      5  C   UNL     1       8.344  27.408 -13.503  0.00  0.00    +0.000 A 
ATOM      6  C   UNL     1       7.947  26.989 -12.241  0.00  0.00    +0.000 A 
ATOM      7  C   UNL     1       6.277  25.622 -13.089  0.00  0.00    +0.000 A 
ATOM      8  C   UNL     1       5.237  24.742 -12.871  0.00  0.00    +0.000 A 
ATOM      9  C   UNL     1       4.489  24.190 -13.926  0.00  0.00    +0.000 A 
ATOM     10  C   UNL     1       4.798  24.512 -15.242  0.00  0.00    +0.000 A 
ATOM     11  C   UNL     1       5.845  25.414 -15.494  0.00  0.00    +0.000 A 
ATOM     12  C   UNL     1       6.586  25.976 -14.426  0.00  0.00    +0.000 A 
ATOM     13  C   UNL     1       7.651  26.884 -14.607  0.00  0.00    +0.000 A 
ATOM     14  N   UNL     1       6.935  26.115 -12.028  0.00  0.00    +0.000 NA
BRANCH   9  15
ATOM     15  O   UNL     1       3.519  23.274 -13.632  0.00  0.00    +0.000 OA
BRANCH  15  16
ATOM     16  C   UNL     1       4.120  22.270 -12.793  0.00  0.00    +0.000 C 
ATOM     17  F   UNL     1       3.320  22.151 -11.713  0.00  0.00    +0.000 F 
ATOM     18  F   UNL     1       4.350  21.129 -13.475  0.00  0.00    +0.000 F 
ENDBRANCH  15  16
ENDBRANCH   9  15
ENDBRANCH   1   5
BRANCH   2  24
ATOM     19  C   UNL     1      13.616  30.152 -16.687  0.00  0.00    +0.000 C 
ATOM     20  C   UNL     1      12.734  28.279 -15.214  0.00  0.00    +0.000 C 
ATOM     21  C   UNL     1      11.174  30.099 -16.006  0.00  0.00    +0.000 C 
ATOM     22  C   UNL     1      12.380  30.986 -16.312  0.00  0.00    +0.000 C 
ATOM     23  C   UNL     1      13.920  29.206 -15.510  0.00  0.00    +0.000 C 
ATOM     24  C   UNL     1      11.480  29.093 -14.903  0.00  0.00    +0.000 C 
BRANCH  19  27
ATOM     25  C   UNL     1      14.459  32.108 -18.152  0.00  0.00    +0.000 C 
ATOM     26  C   UNL     1      15.964  30.206 -17.639  0.00  0.00    +0.000 C 
ATOM     27  C   UNL     1      14.807  31.047 -17.096  0.00  0.00    +0.000 C 
BRANCH  27  28
ATOM     28  O   UNL     1      15.269  31.739 -15.937  0.00  0.00    +0.000 OA
ATOM     29  H   UNL     1      16.010  32.300 -16.175  0.00  0.00    +0.000 HD
ENDBRANCH  27  28
ENDBRANCH  19  27
ENDBRANCH   2  24
TORSDOF 6
