REMARK  Name = 5zr3_ligand
REMARK  9 active torsions:
REMARK  status: ('A' for Active; 'I' for Inactive)
REMARK    1  A    between atoms: C_2  and  C_4
REMARK    2  A    between atoms: C_6  and  C_7
REMARK    3  A    between atoms: C_10  and  N_11
REMARK    4  A    between atoms: C_13  and  C_14
REMARK    5  A    between atoms: C_14  and  C_15
REMARK    6  A    between atoms: C_14  and  C_16
REMARK    7  A    between atoms: C_22  and  N_23
REMARK    8  A    between atoms: C_27  and  C_28
REMARK    9  A    between atoms: N_32  and  C_33
REMARK                            x       y       z     vdW  Elec       q    Type
REMARK                         _______ _______ _______ _____ _____    ______ ____
ROOT
ATOM      1  N   UNL     1      32.781  18.915   9.277  0.00  0.00    +0.000 N 
ATOM      2  N   UNL     1      33.251  18.509  10.514  0.00  0.00    +0.000 NA
ATOM      3  C   UNL     1      34.591  18.719  10.508  0.00  0.00    +0.000 A 
ATOM      4  C   UNL     1      34.977  19.403   9.239  0.00  0.00    +0.000 A 
ATOM      5  C   UNL     1      33.686  19.508   8.512  0.00  0.00    +0.000 A 
ATOM      6  N   UNL     1      33.592  20.086   7.286  0.00  0.00    +0.000 NA
ATOM      7  C   UNL     1      34.674  20.559   6.707  0.00  0.00    +0.000 A 
ATOM      8  C   UNL     1      35.929  20.503   7.328  0.00  0.00    +0.000 A 
ATOM      9  C   UNL     1      36.201  19.970   8.601  0.00  0.00    +0.000 A 
ENDROOT
BRANCH   1  16
ATOM     10  C   UNL     1      28.844  19.645   7.962  0.00  0.00    +0.000 A 
ATOM     11  C   UNL     1      29.304  20.173   9.171  0.00  0.00    +0.000 A 
ATOM     12  C   UNL     1      30.594  19.911   9.627  0.00  0.00    +0.000 A 
ATOM     13  C   UNL     1      30.977  20.500  10.961  0.00  0.00    +0.000 C 
ATOM     14  C   UNL     1      29.719  18.876   7.216  0.00  0.00    +0.000 A 
ATOM     15  C   UNL     1      31.020  18.591   7.665  0.00  0.00    +0.000 A 
ATOM     16  C   UNL     1      31.531  19.033   8.874  0.00  0.00    +0.000 A 
BRANCH  10  18
ATOM     17  O   UNL     1      26.975  19.252   6.469  0.00  0.00    +0.000 OA
ATOM     18  C   UNL     1      27.495  19.945   7.352  0.00  0.00    +0.000 C 
ATOM     19  N   UNL     1      26.925  21.091   7.693  0.00  0.00    +0.000 N 
ATOM     20  H   UNL     1      26.068  21.392   7.229  0.00  0.00    +0.000 HD
ATOM     21  H   UNL     1      27.343  21.672   8.419  0.00  0.00    +0.000 HD
ENDBRANCH  10  18
ENDBRANCH   1  16
BRANCH   9  22
ATOM     22  N   UNL     1      37.441  19.920   9.193  0.00  0.00    +0.000 N 
ATOM     23  C   UNL     1      38.059  18.750   9.407  0.00  0.00    +0.000 A 
ATOM     24  N   UNL     1      39.251  19.029   9.977  0.00  0.00    +0.000 NA
ATOM     25  C   UNL     1      38.195  20.976   9.545  0.00  0.00    +0.000 A 
ATOM     26  C   UNL     1      39.324  20.340  10.077  0.00  0.00    +0.000 A 
BRANCH  26  27
ATOM     27  C   UNL     1      40.596  20.901  10.638  0.00  0.00    +0.000 A 
ATOM     28  C   UNL     1      41.542  20.150  11.354  0.00  0.00    +0.000 A 
ATOM     29  N   UNL     1      42.583  20.981  11.653  0.00  0.00    +0.000 NA
ATOM     30  C   UNL     1      41.022  22.189  10.453  0.00  0.00    +0.000 A 
ATOM     31  N   UNL     1      42.209  22.222  11.097  0.00  0.00    +0.000 N 
ATOM     32  C   UNL     1      43.181  23.312  11.299  0.00  0.00    +0.000 C 
ENDBRANCH  26  27
ENDBRANCH   9  22
BRANCH   3  33
ATOM     33  C   UNL     1      35.593  18.474  11.561  0.00  0.00    +0.000 C 
ATOM     34  C   UNL     1      34.969  19.001  12.876  0.00  0.00    +0.000 C 
ATOM     35  C   UNL     1      36.058  17.032  11.640  0.00  0.00    +0.000 C 
ENDBRANCH   3  33
TORSDOF 5
