REMARK  Name = 6oiq_ligand
REMARK  5 active torsions:
REMARK  status: ('A' for Active; 'I' for Inactive)
REMARK    1  A    between atoms: C_1  and  C_2
REMARK    2  A    between atoms: C_3  and  C_8
REMARK    3  A    between atoms: N_16  and  N_17
REMARK    4  A    between atoms: N_17  and  S_18
REMARK    5  A    between atoms: S_18  and  C_21
REMARK                            x       y       z     vdW  Elec       q    Type
REMARK                         _______ _______ _______ _____ _____    ______ ____
ROOT
ATOM      1  C   UNL     1      -5.188 -10.818  17.910  0.00  0.00    +0.000 C 
ATOM      2  O   UNL     1      -5.514  -9.988  17.042  0.00  0.00    +0.000 OA
ATOM      3  N   UNL     1      -4.099 -10.664  18.686  0.00  0.00    +0.000 N 
ATOM      4  H   UNL     1      -3.927 -11.278  19.482  0.00  0.00    +0.000 HD
ENDROOT
BRANCH   1   5
ATOM      5  C   UNL     1      -5.996 -11.926  18.272  0.00  0.00    +0.000 A 
ATOM      6  C   UNL     1      -7.330 -13.873  17.562  0.00  0.00    +0.000 A 
ATOM      7  C   UNL     1      -6.485 -12.769  17.315  0.00  0.00    +0.000 A 
ATOM      8  C   UNL     1      -6.266 -12.154  19.674  0.00  0.00    +0.000 A 
ATOM      9  C   UNL     1      -7.106 -13.260  19.912  0.00  0.00    +0.000 A 
ATOM     10  C   UNL     1      -7.671 -14.135  18.937  0.00  0.00    +0.000 A 
ATOM     11  F   UNL     1      -6.155 -12.454  15.931  0.00  0.00    +0.000 F 
BRANCH   6  12
ATOM     12  C   UNL     1      -7.790 -14.732  16.530  0.00  0.00    +0.000 A 
ATOM     13  C   UNL     1      -8.657 -16.545  14.486  0.00  0.00    +0.000 A 
ATOM     14  C   UNL     1      -8.154 -17.041  15.708  0.00  0.00    +0.000 A 
ATOM     15  C   UNL     1      -7.799 -16.122  16.722  0.00  0.00    +0.000 A 
ATOM     16  C   UNL     1      -8.694 -15.146  14.284  0.00  0.00    +0.000 A 
ATOM     17  C   UNL     1      -8.220 -14.259  15.277  0.00  0.00    +0.000 A 
ENDBRANCH   6  12
ENDBRANCH   1   5
BRANCH   3  18
ATOM     18  N   UNL     1      -3.173  -9.588  18.349  0.00  0.00    +0.000 NA
ATOM     19  H   UNL     1      -2.500  -9.651  17.585  0.00  0.00    +0.000 HD
BRANCH  18  20
ATOM     20  S   UNL     1      -3.324  -8.179  19.378  0.00  0.00    +0.000 S 
ATOM     21  O   UNL     1      -2.547  -7.088  18.847  0.00  0.00    +0.000 OA
ATOM     22  O   UNL     1      -4.753  -7.771  19.731  0.00  0.00    +0.000 OA
BRANCH  20  23
ATOM     23  C   UNL     1      -2.626  -8.557  21.027  0.00  0.00    +0.000 A 
ATOM     24  C   UNL     1      -3.264  -9.519  21.802  0.00  0.00    +0.000 A 
ATOM     25  C   UNL     1      -2.763  -9.784  23.083  0.00  0.00    +0.000 A 
ATOM     26  C   UNL     1      -1.561  -9.141  23.412  0.00  0.00    +0.000 A 
ATOM     27  C   UNL     1      -0.943  -8.165  22.613  0.00  0.00    +0.000 A 
ATOM     28  C   UNL     1      -1.484  -7.834  21.346  0.00  0.00    +0.000 A 
ENDBRANCH  20  23
ENDBRANCH  18  20
ENDBRANCH   3  18
TORSDOF 5
