REMARK  Name = 6jsz_ligand
REMARK  6 active torsions:
REMARK  status: ('A' for Active; 'I' for Inactive)
REMARK    1  A    between atoms: C_1  and  C_2
REMARK    2  A    between atoms: C_2  and  C_15
REMARK    3  A    between atoms: N_13  and  C_17
REMARK    4  A    between atoms: C_18  and  C_19
REMARK    5  A    between atoms: C_30  and  O_32
REMARK    6  A    between atoms: O_32  and  C_33
REMARK                            x       y       z     vdW  Elec       q    Type
REMARK                         _______ _______ _______ _____ _____    ______ ____
ROOT
ATOM      1  C   UNL     1      20.457  -6.489 -17.901  0.00  0.00    +0.000 A 
ATOM      2  C   UNL     1      21.206  -7.588 -17.426  0.00  0.00    +0.000 A 
ATOM      3  C   UNL     1      20.655  -8.822 -17.063  0.00  0.00    +0.000 A 
ATOM      4  F   UNL     1      18.174  -5.784 -18.400  0.00  0.00    +0.000 F 
ATOM      5  C   UNL     1      19.056  -6.714 -17.977  0.00  0.00    +0.000 A 
ATOM      6  C   UNL     1      18.490  -7.927 -17.612  0.00  0.00    +0.000 A 
ATOM      7  C   UNL     1      19.263  -8.966 -17.149  0.00  0.00    +0.000 A 
ENDROOT
BRANCH   1   9
ATOM      8  C   UNL     1      20.375  -3.992 -17.570  0.00  0.00    +0.000 C 
ATOM      9  C   UNL     1      21.140  -5.140 -18.301  0.00  0.00    +0.000 C 
ATOM     10  C   UNL     1      23.633  -5.455 -18.136  0.00  0.00    +0.000 C 
ATOM     11  C   UNL     1      22.202  -6.108 -20.417  0.00  0.00    +0.000 C 
ATOM     12  C   UNL     1      21.312  -4.939 -19.861  0.00  0.00    +0.000 C 
ATOM     13  C   UNL     1      21.928  -3.527 -20.151  0.00  0.00    +0.000 C 
ATOM     14  C   UNL     1      22.256  -3.205 -21.607  0.00  0.00    +0.000 C 
ATOM     15  N   UNL     1      22.475  -5.097 -17.689  0.00  0.00    +0.000 N 
ATOM     16  N   UNL     1      24.757  -5.314 -17.387  0.00  0.00    +0.000 NA
ATOM     17  O   UNL     1      21.058  -3.133 -23.925  0.00  0.00    +0.000 OA
ATOM     18  C   UNL     1      20.008  -4.774 -22.158  0.00  0.00    +0.000 C 
ATOM     19  O   UNL     1      19.848  -2.163 -22.012  0.00  0.00    +0.000 OA
ATOM     20  C   UNL     1      19.971  -4.998 -20.644  0.00  0.00    +0.000 C 
ATOM     21  S   UNL     1      20.712  -3.156 -22.550  0.00  0.00    +0.000 S 
ATOM     22  S   UNL     1      23.883  -6.138 -19.734  0.00  0.00    +0.000 S 
ATOM     23  H   UNL     1      22.490  -4.717 -16.743  0.00  0.00    +0.000 HD
ATOM     24  H   UNL     1      25.661  -5.598 -17.765  0.00  0.00    +0.000 HD
ENDBRANCH   1   9
BRANCH   3  25
ATOM     25  N   UNL     1      21.546  -9.803 -16.577  0.00  0.00    +0.000 N 
ATOM     26  C   UNL     1      21.321 -11.137 -16.397  0.00  0.00    +0.000 C 
ATOM     27  O   UNL     1      20.284 -11.711 -16.681  0.00  0.00    +0.000 OA
ATOM     28  H   UNL     1      22.478  -9.472 -16.328  0.00  0.00    +0.000 HD
BRANCH  26  29
ATOM     29  C   UNL     1      22.427 -11.933 -15.822  0.00  0.00    +0.000 A 
ATOM     30  C   UNL     1      24.593 -11.967 -14.978  0.00  0.00    +0.000 A 
ATOM     31  C   UNL     1      22.311 -13.315 -15.578  0.00  0.00    +0.000 A 
ATOM     32  N   UNL     1      23.339 -13.967 -15.053  0.00  0.00    +0.000 NA
ATOM     33  C   UNL     1      24.485 -13.341 -14.743  0.00  0.00    +0.000 A 
ATOM     34  N   UNL     1      23.573 -11.308 -15.497  0.00  0.00    +0.000 NA
BRANCH  33  35
ATOM     35  O   UNL     1      25.557 -13.969 -14.205  0.00  0.00    +0.000 OA
BRANCH  35  36
ATOM     36  C   UNL     1      25.520 -15.357 -13.872  0.00  0.00    +0.000 C 
ATOM     37  F   UNL     1      24.945 -15.533 -12.609  0.00  0.00    +0.000 F 
ENDBRANCH  35  36
ENDBRANCH  33  35
ENDBRANCH  26  29
ENDBRANCH   3  25
TORSDOF 5
