REMARK  Name = 6mj4_ligand
REMARK  55 active torsions:
REMARK  status: ('A' for Active; 'I' for Inactive)
REMARK    1  A    between atoms: C_1  and  O_27
REMARK    2  A    between atoms: C_2  and  O_28
REMARK    3  A    between atoms: C_3  and  O_32
REMARK    4  A    between atoms: C_4  and  C_30
REMARK    5  A    between atoms: C_5  and  O_26
REMARK    6  A    between atoms: C_6  and  C_7
REMARK    7  A    between atoms: C_7  and  C_8
REMARK    8  A    between atoms: C_8  and  C_9
REMARK    9  A    between atoms: C_9  and  C_10
REMARK   10  A    between atoms: C_10  and  C_11
REMARK   11  A    between atoms: C_11  and  C_12
REMARK   12  A    between atoms: C_12  and  C_13
REMARK   13  A    between atoms: C_13  and  C_14
REMARK   14  A    between atoms: C_14  and  C_15
REMARK   15  A    between atoms: C_15  and  C_16
REMARK   16  A    between atoms: C_16  and  C_17
REMARK   17  A    between atoms: C_17  and  C_18
REMARK   18  A    between atoms: C_18  and  C_19
REMARK   19  A    between atoms: C_19  and  C_20
REMARK   20  A    between atoms: C_20  and  O_21
REMARK   21  A    between atoms: C_20  and  C_22
REMARK   22  A    between atoms: C_22  and  O_23
REMARK   23  A    between atoms: C_22  and  C_24
REMARK   24  A    between atoms: C_24  and  C_25
REMARK   25  A    between atoms: C_24  and  N_36
REMARK   26  A    between atoms: C_25  and  O_26
REMARK   27  A    between atoms: C_30  and  O_31
REMARK   28  A    between atoms: O_32  and  C_33
REMARK   29  A    between atoms: C_33  and  C_34
REMARK   30  A    between atoms: C_34  and  C_35
REMARK   31  A    between atoms: C_37  and  C_39
REMARK   32  A    between atoms: C_39  and  C_40
REMARK   33  A    between atoms: C_40  and  C_41
REMARK   34  A    between atoms: C_41  and  C_42
REMARK   35  A    between atoms: C_42  and  C_43
REMARK   36  A    between atoms: C_43  and  C_44
REMARK   37  A    between atoms: C_44  and  C_45
REMARK   38  A    between atoms: C_45  and  C_46
REMARK   39  A    between atoms: C_46  and  C_47
REMARK   40  A    between atoms: C_47  and  C_48
REMARK   41  A    between atoms: C_48  and  C_49
REMARK   42  A    between atoms: C_49  and  C_50
REMARK   43  A    between atoms: C_50  and  C_51
REMARK   44  A    between atoms: C_51  and  C_52
REMARK   45  A    between atoms: C_52  and  C_53
REMARK   46  A    between atoms: C_53  and  C_54
REMARK   47  A    between atoms: C_54  and  C_55
REMARK   48  A    between atoms: C_55  and  C_56
REMARK   49  A    between atoms: C_56  and  C_57
REMARK   50  A    between atoms: C_57  and  C_58
REMARK   51  A    between atoms: C_58  and  C_59
REMARK   52  A    between atoms: C_59  and  C_60
REMARK   53  A    between atoms: C_60  and  C_61
REMARK   54  A    between atoms: C_61  and  C_62
REMARK   55  A    between atoms: C_62  and  C_63
REMARK                            x       y       z     vdW  Elec       q    Type
REMARK                         _______ _______ _______ _____ _____    ______ ____
ROOT
ATOM      1  C   UNL     1     -13.512 -27.582  19.041  0.00  0.00    +0.000 C 
ENDROOT
BRANCH   1   2
ATOM      2  N   UNL     1     -13.922 -26.187  18.914  0.00  0.00    +0.000 N 
ATOM      3  C   UNL     1     -13.541 -25.304  19.850  0.00  0.00    +0.000 C 
ATOM      4  O   UNL     1     -12.816 -25.598  20.801  0.00  0.00    +0.000 OA
ATOM      5  H   UNL     1     -14.492 -25.887  18.123  0.00  0.00    +0.000 HD
BRANCH   3   6
ATOM      6  C   UNL     1     -14.067 -23.878  19.654  0.00  0.00    +0.000 C 
BRANCH   6   7
ATOM      7  C   UNL     1     -12.950 -22.851  19.844  0.00  0.00    +0.000 C 
BRANCH   7   8
ATOM      8  C   UNL     1     -12.033 -22.800  18.629  0.00  0.00    +0.000 C 
BRANCH   8   9
ATOM      9  C   UNL     1     -10.931 -21.784  18.952  0.00  0.00    +0.000 C 
BRANCH   9  10
ATOM     10  C   UNL     1      -9.894 -21.680  17.839  0.00  0.00    +0.000 C 
BRANCH  10  11
ATOM     11  C   UNL     1      -8.835 -20.652  18.287  0.00  0.00    +0.000 C 
BRANCH  11  12
ATOM     12  C   UNL     1      -7.524 -20.900  17.568  0.00  0.00    +0.000 C 
BRANCH  12  13
ATOM     13  C   UNL     1      -6.458 -19.912  18.052  0.00  0.00    +0.000 C 
BRANCH  13  14
ATOM     14  C   UNL     1      -5.925 -20.318  19.437  0.00  0.00    +0.000 C 
BRANCH  14  15
ATOM     15  C   UNL     1      -4.413 -20.550  19.431  0.00  0.00    +0.000 C 
BRANCH  15  16
ATOM     16  C   UNL     1      -3.738 -19.803  20.572  0.00  0.00    +0.000 C 
BRANCH  16  17
ATOM     17  C   UNL     1      -3.921 -20.533  21.903  0.00  0.00    +0.000 C 
BRANCH  17  18
ATOM     18  C   UNL     1      -3.225 -19.717  23.002  0.00  0.00    +0.000 C 
BRANCH  18  19
ATOM     19  C   UNL     1      -4.173 -19.429  24.166  0.00  0.00    +0.000 C 
BRANCH  19  20
ATOM     20  C   UNL     1      -3.683 -18.218  24.980  0.00  0.00    +0.000 C 
BRANCH  20  21
ATOM     21  C   UNL     1      -4.733 -17.107  24.917  0.00  0.00    +0.000 C 
BRANCH  21  22
ATOM     22  C   UNL     1      -4.280 -15.858  25.688  0.00  0.00    +0.000 C 
BRANCH  22  23
ATOM     23  C   UNL     1      -5.463 -14.920  25.948  0.00  0.00    +0.000 C 
BRANCH  23  24
ATOM     24  C   UNL     1      -6.024 -14.315  24.641  0.00  0.00    +0.000 C 
BRANCH  24  25
ATOM     25  C   UNL     1      -7.357 -14.971  24.297  0.00  0.00    +0.000 C 
BRANCH  25  26
ATOM     26  C   UNL     1      -8.370 -13.987  23.700  0.00  0.00    +0.000 C 
BRANCH  26  27
ATOM     27  C   UNL     1      -8.003 -13.548  22.277  0.00  0.00    +0.000 C 
BRANCH  27  28
ATOM     28  C   UNL     1      -7.745 -14.740  21.361  0.00  0.00    +0.000 C 
BRANCH  28  29
ATOM     29  C   UNL     1      -7.938 -14.326  19.905  0.00  0.00    +0.000 C 
ATOM     30  C   UNL     1      -7.691 -15.536  18.997  0.00  0.00    +0.000 C 
ENDBRANCH  28  29
ENDBRANCH  27  28
ENDBRANCH  26  27
ENDBRANCH  25  26
ENDBRANCH  24  25
ENDBRANCH  23  24
ENDBRANCH  22  23
ENDBRANCH  21  22
ENDBRANCH  20  21
ENDBRANCH  19  20
ENDBRANCH  18  19
ENDBRANCH  17  18
ENDBRANCH  16  17
ENDBRANCH  15  16
ENDBRANCH  14  15
ENDBRANCH  13  14
ENDBRANCH  12  13
ENDBRANCH  11  12
ENDBRANCH  10  11
ENDBRANCH   9  10
ENDBRANCH   8   9
ENDBRANCH   7   8
ENDBRANCH   6   7
ENDBRANCH   3   6
ENDBRANCH   1   2
BRANCH   1  31
ATOM     31  C   UNL     1     -13.488 -28.268  17.679  0.00  0.00    +0.000 C 
BRANCH  31  32
ATOM     32  O   UNL     1     -13.075 -29.613  17.885  0.00  0.00    +0.000 OA
ATOM     33  H   UNL     1     -13.667 -30.036  18.512  0.00  0.00    +0.000 HD
ENDBRANCH  31  32
BRANCH  31  34
ATOM     34  C   UNL     1     -12.554 -27.574  16.679  0.00  0.00    +0.000 C 
BRANCH  34  35
ATOM     35  O   UNL     1     -12.669 -28.277  15.423  0.00  0.00    +0.000 OA
ATOM     36  H   UNL     1     -13.584 -28.263  15.133  0.00  0.00    +0.000 HD
ENDBRANCH  34  35
BRANCH  34  37
ATOM     37  C   UNL     1     -11.101 -27.581  17.166  0.00  0.00    +0.000 C 
BRANCH  37  38
ATOM     38  C   UNL     1     -10.130 -27.141  16.052  0.00  0.00    +0.000 C 
BRANCH  38  39
ATOM     39  C   UNL     1     -10.380 -25.687  15.622  0.00  0.00    +0.000 C 
BRANCH  39  40
ATOM     40  C   UNL     1      -9.188 -25.138  14.805  0.00  0.00    +0.000 C 
BRANCH  40  41
ATOM     41  C   UNL     1      -9.083 -25.819  13.430  0.00  0.00    +0.000 C 
BRANCH  41  42
ATOM     42  C   UNL     1      -7.977 -25.109  12.619  0.00  0.00    +0.000 C 
BRANCH  42  43
ATOM     43  C   UNL     1      -7.973 -25.575  11.161  0.00  0.00    +0.000 C 
BRANCH  43  44
ATOM     44  C   UNL     1      -7.032 -26.773  11.028  0.00  0.00    +0.000 C 
BRANCH  44  45
ATOM     45  C   UNL     1      -6.978 -27.247   9.576  0.00  0.00    +0.000 C 
BRANCH  45  46
ATOM     46  C   UNL     1      -6.308 -28.620   9.581  0.00  0.00    +0.000 C 
BRANCH  46  47
ATOM     47  C   UNL     1      -6.060 -29.095   8.161  0.00  0.00    +0.000 C 
BRANCH  47  48
ATOM     48  C   UNL     1      -5.026 -30.236   8.148  0.00  0.00    +0.000 C 
BRANCH  48  50
ATOM     49  C   UNL     1      -4.709 -32.712   7.978  0.00  0.00    +0.000 C 
ATOM     50  C   UNL     1      -5.719 -31.585   8.234  0.00  0.00    +0.000 C 
ENDBRANCH  48  50
ENDBRANCH  47  48
ENDBRANCH  46  47
ENDBRANCH  45  46
ENDBRANCH  44  45
ENDBRANCH  43  44
ENDBRANCH  42  43
ENDBRANCH  41  42
ENDBRANCH  40  41
ENDBRANCH  39  40
ENDBRANCH  38  39
ENDBRANCH  37  38
ENDBRANCH  34  37
ENDBRANCH  31  34
ENDBRANCH   1  31
BRANCH   1  51
ATOM     51  C   UNL     1     -14.520 -28.281  19.954  0.00  0.00    +0.000 C 
BRANCH  51  52
ATOM     52  O   UNL     1     -15.788 -28.184  19.324  0.00  0.00    +0.000 OA
BRANCH  52  57
ATOM     53  C   UNL     1     -18.085 -28.748  19.181  0.00  0.00    +0.000 C 
ATOM     54  C   UNL     1     -18.439 -27.278  19.044  0.00  0.00    +0.000 C 
ATOM     55  C   UNL     1     -18.645 -26.661  20.427  0.00  0.00    +0.000 C 
ATOM     56  C   UNL     1     -17.377 -26.873  21.264  0.00  0.00    +0.000 C 
ATOM     57  C   UNL     1     -16.827 -28.866  20.016  0.00  0.00    +0.000 C 
ATOM     58  O   UNL     1     -17.035 -28.265  21.305  0.00  0.00    +0.000 OA
BRANCH  54  59
ATOM     59  O   UNL     1     -19.618 -27.159  18.292  0.00  0.00    +0.000 OA
ATOM     60  H   UNL     1     -19.484 -27.548  17.425  0.00  0.00    +0.000 HD
ENDBRANCH  54  59
BRANCH  53  61
ATOM     61  O   UNL     1     -17.858 -29.327  17.871  0.00  0.00    +0.000 OA
ATOM     62  H   UNL     1     -18.658 -29.250  17.345  0.00  0.00    +0.000 HD
ENDBRANCH  53  61
BRANCH  56  63
ATOM     63  C   UNL     1     -17.569 -26.449  22.733  0.00  0.00    +0.000 C 
BRANCH  63  64
ATOM     64  O   UNL     1     -18.001 -25.088  22.799  0.00  0.00    +0.000 OA
ATOM     65  H   UNL     1     -18.117 -24.835  23.718  0.00  0.00    +0.000 HD
ENDBRANCH  63  64
ENDBRANCH  56  63
BRANCH  55  66
ATOM     66  O   UNL     1     -19.791 -27.301  21.029  0.00  0.00    +0.000 OA
BRANCH  66  67
ATOM     67  C   UNL     1     -20.725 -26.408  21.647  0.00  0.00    +0.000 C 
BRANCH  67  68
ATOM     68  C   UNL     1     -21.920 -26.181  20.724  0.00  0.00    +0.000 C 
ATOM     69  C   UNL     1     -22.146 -24.685  20.536  0.00  0.00    +0.000 C 
ENDBRANCH  67  68
ENDBRANCH  66  67
ENDBRANCH  55  66
ENDBRANCH  52  57
ENDBRANCH  51  52
ENDBRANCH   1  51
TORSDOF 52
