REMARK  Name = 6qwi_ligand
REMARK  11 active torsions:
REMARK  status: ('A' for Active; 'I' for Inactive)
REMARK    1  A    between atoms: C_2  and  C_7
REMARK    2  A    between atoms: C_2  and  O_17
REMARK    3  A    between atoms: C_3  and  C_8
REMARK    4  A    between atoms: C_3  and  O_20
REMARK    5  A    between atoms: C_4  and  C_9
REMARK    6  A    between atoms: C_5  and  O_17
REMARK    7  A    between atoms: C_7  and  O_20
REMARK    8  A    between atoms: C_9  and  N_13
REMARK    9  A    between atoms: O_11  and  C_21
REMARK   10  A    between atoms: O_14  and  C_18
REMARK   11  A    between atoms: C_23  and  C_24
REMARK                            x       y       z     vdW  Elec       q    Type
REMARK                         _______ _______ _______ _____ _____    ______ ____
ROOT
ATOM      1  N   UNL     1      38.181  -1.406  60.272  0.00  0.00    +0.000 N 
ATOM      2  N   UNL     1      37.183  -0.740  59.800  0.00  0.00    +0.000 NA
ATOM      3  N   UNL     1      36.426  -1.306  58.946  0.00  0.00    +0.000 NA
ATOM      4  C   UNL     1      36.904  -2.523  58.751  0.00  0.00    +0.000 A 
ATOM      5  C   UNL     1      38.145  -2.748  59.619  0.00  0.00    +0.000 A 
ENDROOT
BRANCH   4  11
ATOM      6  C   UNL     1      34.769  -3.983  56.168  0.00  0.00    +0.000 A 
ATOM      7  C   UNL     1      35.255  -5.284  56.068  0.00  0.00    +0.000 A 
ATOM      8  C   UNL     1      36.338  -5.703  56.884  0.00  0.00    +0.000 A 
ATOM      9  C   UNL     1      35.336  -3.070  57.070  0.00  0.00    +0.000 A 
ATOM     10  C   UNL     1      36.921  -4.808  57.806  0.00  0.00    +0.000 A 
ATOM     11  C   UNL     1      36.411  -3.468  57.909  0.00  0.00    +0.000 A 
BRANCH   7  12
ATOM     12  O   UNL     1      34.546  -6.077  55.092  0.00  0.00    +0.000 OA
BRANCH  12  13
ATOM     13  C   UNL     1      35.091  -7.348  54.735  0.00  0.00    +0.000 C 
BRANCH  13  14
ATOM     14  C   UNL     1      34.442  -7.788  53.399  0.00  0.00    +0.000 C 
BRANCH  14  15
ATOM     15  O   UNL     1      35.414  -8.335  52.522  0.00  0.00    +0.000 OA
BRANCH  15  16
ATOM     16  C   UNL     1      35.153  -8.611  51.155  0.00  0.00    +0.000 C 
ATOM     17  C   UNL     1      34.933 -10.135  50.914  0.00  0.00    +0.000 C 
ENDBRANCH  15  16
ENDBRANCH  14  15
ENDBRANCH  13  14
ENDBRANCH  12  13
ENDBRANCH   7  12
ENDBRANCH   4  11
BRANCH   1  18
ATOM     18  C   UNL     1      39.326  -1.137  61.264  0.00  0.00    +0.000 C 
BRANCH  18  19
ATOM     19  C   UNL     1      38.951  -1.425  62.707  0.00  0.00    +0.000 C 
ATOM     20  N   UNL     1      37.844  -0.416  62.923  0.00  0.00    +0.000 N 
ATOM     21  C   UNL     1      37.282  -0.657  64.220  0.00  0.00    +0.000 C 
ATOM     22  C   UNL     1      38.702  -0.724  64.969  0.00  0.00    +0.000 C 
ATOM     23  C   UNL     1      39.772  -1.061  63.921  0.00  0.00    +0.000 C 
ATOM     24  H   UNL     1      37.129  -0.514  62.202  0.00  0.00    +0.000 HD
ATOM     25  H   UNL     1      38.213   0.533  62.867  0.00  0.00    +0.000 HD
BRANCH  23  26
ATOM     26  O   UNL     1      40.596  -2.122  64.541  0.00  0.00    +0.000 OA
ATOM     27  H   UNL     1      41.292  -2.382  63.933  0.00  0.00    +0.000 HD
ENDBRANCH  23  26
BRANCH  22  28
ATOM     28  O   UNL     1      38.710  -1.675  66.034  0.00  0.00    +0.000 OA
ATOM     29  H   UNL     1      39.575  -1.680  66.450  0.00  0.00    +0.000 HD
ENDBRANCH  22  28
ENDBRANCH  18  19
ENDBRANCH   1  18
TORSDOF 10
