REMARK  Name = 6i41_ligand
REMARK  28 active torsions:
REMARK  status: ('A' for Active; 'I' for Inactive)
REMARK    1  A    between atoms: N_1  and  CA_2
REMARK    2  A    between atoms: CA_2  and  C_3
REMARK    3  A    between atoms: CA_2  and  CB_5
REMARK    4  A    between atoms: N_6  and  CA_7
REMARK    5  A    between atoms: CA_7  and  C_8
REMARK    6  A    between atoms: CA_7  and  CB_10
REMARK    7  A    between atoms: N_11  and  CA_12
REMARK    8  A    between atoms: CA_12  and  C_13
REMARK    9  A    between atoms: CA_12  and  CB_15
REMARK   10  A    between atoms: CB_15  and  CG_16
REMARK   11  A    between atoms: CG_16  and  OD1_17
REMARK   12  A    between atoms: N_19  and  CA_20
REMARK   13  A    between atoms: CA_20  and  C_21
REMARK   14  A    between atoms: CA_20  and  CB_23
REMARK   15  A    between atoms: CB_23  and  OG1_24
REMARK   16  A    between atoms: CB_23  and  CG2_25
REMARK   17  A    between atoms: N_26  and  CA_27
REMARK   18  A    between atoms: CA_27  and  C_28
REMARK   19  A    between atoms: CA_27  and  CB_30
REMARK   20  A    between atoms: CB_30  and  OG1_31
REMARK   21  A    between atoms: CB_30  and  CG2_32
REMARK   22  A    between atoms: N_33  and  CA_34
REMARK   23  A    between atoms: CA_34  and  C_35
REMARK   24  A    between atoms: CA_34  and  CB_37
REMARK   25  A    between atoms: CB_37  and  OG1_38
REMARK   26  A    between atoms: CB_37  and  CG2_39
REMARK   27  A    between atoms: CA_41  and  C_42
REMARK   28  A    between atoms: C_42  and  OXT_47
REMARK                            x       y       z     vdW  Elec       q    Type
REMARK                         _______ _______ _______ _____ _____    ______ ____
ROOT
ATOM      1  CA  THR A   4     -22.916  -1.240   2.907  0.00  0.00    +0.000 C 
ENDROOT
BRANCH   1   4
ATOM      2  C   ASP A   3     -22.641   1.120   2.283  0.00  0.00    +0.000 C 
ATOM      3  O   ASP A   3     -21.591   0.921   1.665  0.00  0.00    +0.000 OA
ATOM      4  N   THR A   4     -23.325   0.156   2.894  0.00  0.00    +0.000 N 
ATOM      5  H   THR A   4     -24.185   0.410   3.381  0.00  0.00    +0.000 HD
BRANCH   2   6
ATOM      6  CA  ASP A   3     -23.248   2.515   2.391  0.00  0.00    +0.000 C 
BRANCH   6   9
ATOM      7  C   ALA A   2     -21.916   4.467   2.996  0.00  0.00    +0.000 C 
ATOM      8  O   ALA A   2     -22.524   4.628   4.058  0.00  0.00    +0.000 OA
ATOM      9  N   ASP A   3     -22.229   3.518   2.120  0.00  0.00    +0.000 N 
ATOM     10  H   ASP A   3     -21.738   3.492   1.226  0.00  0.00    +0.000 HD
BRANCH   7  11
ATOM     11  CA  ALA A   2     -20.743   5.357   2.612  0.00  0.00    +0.000 C 
ATOM     12  CB  ALA A   2     -19.436   4.681   3.021  0.00  0.00    +0.000 C 
BRANCH  11  15
ATOM     13  C   ALA A   1     -21.641   7.603   2.720  0.00  0.00    +0.000 C 
ATOM     14  O   ALA A   1     -22.240   7.462   1.655  0.00  0.00    +0.000 OA
ATOM     15  N   ALA A   2     -20.866   6.658   3.243  0.00  0.00    +0.000 N 
ATOM     16  H   ALA A   2     -20.350   6.850   4.101  0.00  0.00    +0.000 HD
BRANCH  13  17
ATOM     17  CA  ALA A   1     -21.746   8.907   3.502  0.00  0.00    +0.000 C 
ATOM     18  CB  ALA A   1     -23.014   8.912   4.364  0.00  0.00    +0.000 C 
BRANCH  17  19
ATOM     19  N   ALA A   1     -21.735  10.047   2.592  0.00  0.00    +0.000 N 
ATOM     20  H1  ALA A   1     -20.884  10.024   2.030  0.00  0.00    +0.000 HD
ATOM     21  H2  ALA A   1     -22.550  10.000   1.980  0.00  0.00    +0.000 HD
ATOM     22  H3  ALA A   1     -21.763  10.912   3.132  0.00  0.00    +0.000 HD
ENDBRANCH  17  19
ENDBRANCH  13  17
ENDBRANCH  11  15
ENDBRANCH   7  11
ENDBRANCH   6   9
BRANCH   6  23
ATOM     23  CB  ASP A   3     -24.435   2.646   1.435  0.00  0.00    +0.000 C 
BRANCH  23  24
ATOM     24  CG  ASP A   3     -24.042   2.437  -0.009  0.00  0.00    +0.000 C 
ATOM     25  OD2 ASP A   3     -24.316   1.340  -0.529  0.00  0.00    +0.000 OA
BRANCH  24  26
ATOM     26  OD1 ASP A   3     -23.427   3.350  -0.612  0.00  0.00    +0.000 OA
ATOM     27  HD1 ASP A   3     -23.323   4.104  -0.028  0.00  0.00    +0.000 HD
ENDBRANCH  24  26
ENDBRANCH  23  24
ENDBRANCH   6  23
ENDBRANCH   2   6
ENDBRANCH   1   4
BRANCH   1  28
ATOM     28  C   THR A   4     -24.040  -2.095   2.342  0.00  0.00    +0.000 C 
ATOM     29  O   THR A   4     -25.221  -1.764   2.481  0.00  0.00    +0.000 OA
ATOM     30  N   THR A   5     -23.669  -3.202   1.701  0.00  0.00    +0.000 N 
ATOM     31  H   THR A   5     -22.677  -3.425   1.625  0.00  0.00    +0.000 HD
BRANCH  30  32
ATOM     32  CA  THR A   5     -24.649  -4.102   1.105  0.00  0.00    +0.000 C 
BRANCH  32  33
ATOM     33  C   THR A   5     -24.868  -5.374   1.914  0.00  0.00    +0.000 C 
ATOM     34  O   THR A   5     -25.592  -6.260   1.457  0.00  0.00    +0.000 OA
ATOM     35  N   THR A   6     -24.264  -5.491   3.096  0.00  0.00    +0.000 N 
ATOM     36  H   THR A   6     -23.724  -4.702   3.451  0.00  0.00    +0.000 HD
BRANCH  35  37
ATOM     37  CA  THR A   6     -24.344  -6.700   3.900  0.00  0.00    +0.000 C 
BRANCH  37  38
ATOM     38  C   THR A   6     -24.801  -6.361   5.315  0.00  0.00    +0.000 C 
ATOM     39  O   THR A   6     -24.312  -5.394   5.910  0.00  0.00    +0.000 OA
ATOM     40  N   PRO A   7     -25.742  -7.136   5.880  0.00  0.00    +0.000 N 
ATOM     41  CA  PRO A   7     -26.246  -6.871   7.234  0.00  0.00    +0.000 C 
ATOM     42  CB  PRO A   7     -27.453  -7.808   7.347  0.00  0.00    +0.000 C 
ATOM     43  CG  PRO A   7     -27.136  -8.928   6.423  0.00  0.00    +0.000 C 
ATOM     44  CD  PRO A   7     -26.402  -8.302   5.266  0.00  0.00    +0.000 C 
BRANCH  41  45
ATOM     45  C   PRO A   7     -25.218  -7.176   8.321  0.00  0.00    +0.000 C 
ATOM     46  O   PRO A   7     -25.154  -6.442   9.309  0.00  0.00    +0.000 OA
BRANCH  45  47
ATOM     47  OXT PRO A   7     -24.474  -8.150   8.187  0.00  0.00    +0.000 OA
ATOM     48  HXT PRO A   7     -24.675  -8.593   7.360  0.00  0.00    +0.000 HD
ENDBRANCH  45  47
ENDBRANCH  41  45
ENDBRANCH  37  38
BRANCH  37  49
ATOM     49  CB  THR A   6     -22.982  -7.413   3.946  0.00  0.00    +0.000 C 
ATOM     50  CG2 THR A   6     -22.665  -8.042   2.601  0.00  0.00    +0.000 C 
BRANCH  49  51
ATOM     51  OG1 THR A   6     -21.952  -6.469   4.269  0.00  0.00    +0.000 OA
ATOM     52  HG1 THR A   6     -21.104  -6.919   4.296  0.00  0.00    +0.000 HD
ENDBRANCH  49  51
ENDBRANCH  37  49
ENDBRANCH  35  37
ENDBRANCH  32  33
BRANCH  32  53
ATOM     53  CB  THR A   5     -24.239  -4.472  -0.326  0.00  0.00    +0.000 C 
ATOM     54  CG2 THR A   5     -23.859  -3.229  -1.109  0.00  0.00    +0.000 C 
BRANCH  53  55
ATOM     55  OG1 THR A   5     -23.118  -5.367  -0.290  0.00  0.00    +0.000 OA
ATOM     56  HG1 THR A   5     -22.864  -5.596  -1.187  0.00  0.00    +0.000 HD
ENDBRANCH  53  55
ENDBRANCH  32  53
ENDBRANCH  30  32
ENDBRANCH   1  28
BRANCH   1  57
ATOM     57  CB  THR A   4     -22.570  -1.707   4.328  0.00  0.00    +0.000 C 
ATOM     58  CG2 THR A   4     -23.804  -1.626   5.249  0.00  0.00    +0.000 C 
BRANCH  57  59
ATOM     59  OG1 THR A   4     -22.110  -3.062   4.293  0.00  0.00    +0.000 OA
ATOM     60  HG1 THR A   4     -21.895  -3.349   5.184  0.00  0.00    +0.000 HD
ENDBRANCH  57  59
ENDBRANCH   1  57
TORSDOF 23
