REMARK  Name = 6fe5_ligand
REMARK  14 active torsions:
REMARK  status: ('A' for Active; 'I' for Inactive)
REMARK    1  A    between atoms: OE1_1  and  CD_2
REMARK    2  A    between atoms: CD_2  and  CG_4
REMARK    3  A    between atoms: CG_4  and  CB_5
REMARK    4  A    between atoms: CB_5  and  CA_6
REMARK    5  A    between atoms: CA_6  and  C_7
REMARK    6  A    between atoms: CA_6  and  N_10
REMARK    7  A    between atoms: C_7  and  OXT_9
REMARK    8  A    between atoms: N_13  and  CA_14
REMARK    9  A    between atoms: CA_14  and  C_15
REMARK   10  A    between atoms: CA_14  and  CB_18
REMARK   11  A    between atoms: C_15  and  O_16
REMARK   12  A    between atoms: CB_18  and  CG_19
REMARK   13  A    between atoms: CG_19  and  CD1_20
REMARK   14  A    between atoms: CG_19  and  CD2_21
REMARK                            x       y       z     vdW  Elec       q    Type
REMARK                         _______ _______ _______ _____ _____    ______ ____
ROOT
ATOM      1  N   LEU A   1      16.835  45.203  42.817  0.00  0.00    +0.000 N 
ATOM      2  C   UNK A   0      18.099  44.864  43.162  0.00  0.00    +0.000 C 
ATOM      3  O   UNK A   0      18.593  43.810  42.730  0.00  0.00    +0.000 OA
ATOM      4  N   LEU A   1      18.678  45.637  44.059  0.00  0.00    +0.000 N 
ATOM      5  H   LEU A   1      16.347  45.922  43.352  0.00  0.00    +0.000 HD
ATOM      6  H   LEU A   1      18.146  46.415  44.450  0.00  0.00    +0.000 HD
ENDROOT
BRANCH   1   7
ATOM      7  CA  LEU A   1      16.153  44.559  41.692  0.00  0.00    +0.000 C 
BRANCH   7   8
ATOM      8  C   LEU A   1      17.109  44.685  40.457  0.00  0.00    +0.000 C 
ATOM      9  O   LEU A   1      16.980  43.824  39.547  0.00  0.00    +0.000 OA
BRANCH   8  10
ATOM     10  OXT LEU A   1      17.992  45.585  40.431  0.00  0.00    +0.000 OA
ATOM     11  HXT LEU A   1      17.914  46.131  41.217  0.00  0.00    +0.000 HD
ENDBRANCH   8  10
ENDBRANCH   7   8
BRANCH   7  12
ATOM     12  CB  LEU A   1      14.801  45.263  41.354  0.00  0.00    +0.000 C 
BRANCH  12  13
ATOM     13  CG  LEU A   1      15.065  46.792  41.159  0.00  0.00    +0.000 C 
BRANCH  13  14
ATOM     14  CD  LEU A   1      13.864  47.564  40.624  0.00  0.00    +0.000 C 
ATOM     15  OE2 LEU A   1      13.856  48.794  40.841  0.00  0.00    +0.000 OA
BRANCH  14  16
ATOM     16  OE1 LEU A   1      13.103  46.994  39.814  0.00  0.00    +0.000 OA
ATOM     17  HE1 LEU A   1      13.287  46.052  39.813  0.00  0.00    +0.000 HD
ENDBRANCH  14  16
ENDBRANCH  13  14
ENDBRANCH  12  13
ENDBRANCH   7  12
ENDBRANCH   1   7
BRANCH   4  18
ATOM     18  CA  LEU A   1      20.062  45.425  44.522  0.00  0.00    +0.000 C 
BRANCH  18  19
ATOM     19  C   LEU A   1      20.222  46.007  45.909  0.00  0.00    +0.000 C 
ATOM     20  OXT LEU A   1      20.742  45.228  46.737  0.00  0.00    +0.000 OA
BRANCH  19  21
ATOM     21  O   LEU A   1      19.779  47.163  46.118  0.00  0.00    +0.000 OA
ATOM     22  H   LEU A   1      19.437  47.527  45.298  0.00  0.00    +0.000 HD
ENDBRANCH  19  21
ENDBRANCH  18  19
BRANCH  18  23
ATOM     23  CB  LEU A   1      20.943  46.170  43.477  0.00  0.00    +0.000 C 
BRANCH  23  24
ATOM     24  CG  LEU A   1      22.410  46.299  43.905  0.00  0.00    +0.000 C 
ATOM     25  CD1 LEU A   1      23.179  47.141  42.867  0.00  0.00    +0.000 C 
ATOM     26  CD2 LEU A   1      23.039  44.884  43.949  0.00  0.00    +0.000 C 
ENDBRANCH  23  24
ENDBRANCH  18  23
ENDBRANCH   4  18
TORSDOF 12
