REMARK  Name = 6oxq_ligand
REMARK  19 active torsions:
REMARK  status: ('A' for Active; 'I' for Inactive)
REMARK    1  A    between atoms: C_1  and  O_2
REMARK    2  A    between atoms: C_1  and  C_3
REMARK    3  A    between atoms: C_6  and  S_10
REMARK    4  A    between atoms: S_10  and  N_13
REMARK    5  A    between atoms: N_13  and  C_14
REMARK    6  A    between atoms: N_13  and  C_18
REMARK    7  A    between atoms: C_14  and  C_15
REMARK    8  A    between atoms: C_15  and  C_16
REMARK    9  A    between atoms: C_15  and  C_17
REMARK   10  A    between atoms: C_16  and  C_23
REMARK   11  A    between atoms: C_17  and  C_20
REMARK   12  A    between atoms: C_18  and  C_19
REMARK   13  A    between atoms: C_19  and  O_21
REMARK   14  A    between atoms: C_19  and  C_22
REMARK   15  A    between atoms: C_22  and  N_24
REMARK   16  A    between atoms: C_22  and  C_35
REMARK   17  A    between atoms: C_25  and  O_27
REMARK   18  A    between atoms: O_27  and  C_28
REMARK   19  A    between atoms: C_35  and  C_41
REMARK                            x       y       z     vdW  Elec       q    Type
REMARK                         _______ _______ _______ _____ _____    ______ ____
ROOT
ATOM      1  C   UNL     1      70.890  57.845  15.121  0.00  0.00    +0.000 C 
ENDROOT
BRANCH   1   2
ATOM      2  O   UNL     1      70.790  58.980  14.344  0.00  0.00    +0.000 OA
ATOM      3  H   UNL     1      71.380  59.655  14.688  0.00  0.00    +0.000 HD
ENDBRANCH   1   2
BRANCH   1   4
ATOM      4  C   UNL     1      69.948  56.748  14.582  0.00  0.00    +0.000 C 
BRANCH   4   5
ATOM      5  N   UNL     1      70.309  55.460  15.233  0.00  0.00    +0.000 NA
BRANCH   5   6
ATOM      6  S   UNL     1      69.118  54.840  16.343  0.00  0.00    +0.000 S 
ATOM      7  O   UNL     1      68.407  55.915  17.024  0.00  0.00    +0.000 OA
ATOM      8  O   UNL     1      69.732  54.009  17.388  0.00  0.00    +0.000 OA
BRANCH   6  12
ATOM      9  C   UNL     1      66.105  52.134  13.693  0.00  0.00    +0.000 A 
ATOM     10  C   UNL     1      67.276  51.463  14.427  0.00  0.00    +0.000 A 
ATOM     11  C   UNL     1      68.223  52.322  15.271  0.00  0.00    +0.000 A 
ATOM     12  C   UNL     1      67.975  53.829  15.347  0.00  0.00    +0.000 A 
ATOM     13  C   UNL     1      66.822  54.512  14.608  0.00  0.00    +0.000 A 
ATOM     14  C   UNL     1      65.873  53.650  13.767  0.00  0.00    +0.000 A 
BRANCH   9  15
ATOM     15  C   UNL     1      65.172  51.271  12.840  0.00  0.00    +0.000 C 
BRANCH  15  16
ATOM     16  O   UNL     1      65.725  51.278  11.557  0.00  0.00    +0.000 OA
ATOM     17  H   UNL     1      65.179  50.748  10.972  0.00  0.00    +0.000 HD
ENDBRANCH  15  16
ENDBRANCH   9  15
ENDBRANCH   6  12
ENDBRANCH   5   6
BRANCH   5  18
ATOM     18  C   UNL     1      70.962  54.405  14.391  0.00  0.00    +0.000 C 
BRANCH  18  19
ATOM     19  C   UNL     1      72.531  54.497  14.521  0.00  0.00    +0.000 C 
BRANCH  19  20
ATOM     20  C   UNL     1      72.921  54.306  16.007  0.00  0.00    +0.000 C 
ATOM     21  C   UNL     1      74.434  54.402  16.182  0.00  0.00    +0.000 C 
ENDBRANCH  19  20
BRANCH  19  22
ATOM     22  C   UNL     1      73.195  53.445  13.597  0.00  0.00    +0.000 C 
ATOM     23  C   UNL     1      72.855  51.996  14.012  0.00  0.00    +0.000 C 
ENDBRANCH  19  22
ENDBRANCH  18  19
ENDBRANCH   5  18
ENDBRANCH   4   5
ENDBRANCH   1   4
BRANCH   1  24
ATOM     24  C   UNL     1      70.533  58.183  16.583  0.00  0.00    +0.000 C 
BRANCH  24  25
ATOM     25  N   UNL     1      71.533  59.099  17.066  0.00  0.00    +0.000 N 
ATOM     26  C   UNL     1      72.518  58.707  18.084  0.00  0.00    +0.000 C 
ATOM     27  O   UNL     1      72.509  57.645  18.625  0.00  0.00    +0.000 OA
ATOM     28  H   UNL     1      71.559  60.047  16.691  0.00  0.00    +0.000 HD
BRANCH  26  29
ATOM     29  O   UNL     1      73.482  59.707  18.379  0.00  0.00    +0.000 OA
BRANCH  29  31
ATOM     30  O   UNL     1      73.578  62.703  19.715  0.00  0.00    +0.000 OA
ATOM     31  C   UNL     1      74.252  59.556  19.579  0.00  0.00    +0.000 C 
ATOM     32  C   UNL     1      75.702  60.091  19.200  0.00  0.00    +0.000 C 
ATOM     33  O   UNL     1      75.410  61.656  19.124  0.00  0.00    +0.000 OA
ATOM     34  C   UNL     1      74.529  61.903  20.121  0.00  0.00    +0.000 C 
ATOM     35  C   UNL     1      72.198  61.853  19.732  0.00  0.00    +0.000 C 
ATOM     36  C   UNL     1      72.510  60.620  20.627  0.00  0.00    +0.000 C 
ATOM     37  C   UNL     1      73.850  60.417  20.552  0.00  0.00    +0.000 C 
ENDBRANCH  29  31
ENDBRANCH  26  29
ENDBRANCH  24  25
BRANCH  24  38
ATOM     38  C   UNL     1      69.196  58.914  16.686  0.00  0.00    +0.000 C 
BRANCH  38  44
ATOM     39  C   UNL     1      68.639  58.288  19.218  0.00  0.00    +0.000 A 
ATOM     40  C   UNL     1      68.434  58.693  20.685  0.00  0.00    +0.000 A 
ATOM     41  C   UNL     1      68.590  60.160  21.101  0.00  0.00    +0.000 A 
ATOM     42  C   UNL     1      68.948  61.220  20.056  0.00  0.00    +0.000 A 
ATOM     43  C   UNL     1      69.150  60.818  18.596  0.00  0.00    +0.000 A 
ATOM     44  C   UNL     1      68.992  59.343  18.175  0.00  0.00    +0.000 A 
ENDBRANCH  38  44
ENDBRANCH  24  38
ENDBRANCH   1  24
TORSDOF 17
