REMARK  Name = 6moa_ligand
REMARK  6 active torsions:
REMARK  status: ('A' for Active; 'I' for Inactive)
REMARK    1  A    between atoms: C_1  and  C_8
REMARK    2  A    between atoms: C_5  and  C_7
REMARK    3  A    between atoms: C_9  and  C_14
REMARK    4  A    between atoms: C_12  and  C_13
REMARK    5  A    between atoms: C_16  and  C_18
REMARK    6  A    between atoms: C_25  and  C_30
REMARK                            x       y       z     vdW  Elec       q    Type
REMARK                         _______ _______ _______ _____ _____    ______ ____
ROOT
ATOM      1  C   UNL     1       8.554  61.636  -5.016  0.00  0.00    +0.000 A 
ATOM      2  C   UNL     1       9.075  60.665  -4.145  0.00  0.00    +0.000 A 
ATOM      3  C   UNL     1       8.269  59.583  -3.777  0.00  0.00    +0.000 A 
ATOM      4  C   UNL     1       6.979  59.485  -4.275  0.00  0.00    +0.000 A 
ATOM      5  C   UNL     1       6.431  60.434  -5.140  0.00  0.00    +0.000 A 
ATOM      6  C   UNL     1       7.247  61.516  -5.496  0.00  0.00    +0.000 A 
ATOM      7  N   UNL     1       8.558  58.522  -2.964  0.00  0.00    +0.000 NA
ATOM      8  C   UNL     1       7.466  57.794  -2.965  0.00  0.00    +0.000 A 
ATOM      9  N   UNL     1       6.473  58.325  -3.734  0.00  0.00    +0.000 NA
ENDROOT
BRANCH   5  10
ATOM     10  C   UNL     1       5.066  60.302  -5.635  0.00  0.00    +0.000 A 
ATOM     11  C   UNL     1       4.010  60.858  -4.861  0.00  0.00    +0.000 A 
ATOM     12  C   UNL     1       2.680  60.750  -5.312  0.00  0.00    +0.000 A 
ATOM     13  C   UNL     1       2.437  60.092  -6.510  0.00  0.00    +0.000 A 
ATOM     14  C   UNL     1       3.465  59.545  -7.275  0.00  0.00    +0.000 A 
ATOM     15  C   UNL     1       4.793  59.637  -6.854  0.00  0.00    +0.000 A 
ATOM     16  C   UNL     1       4.209  61.538  -3.633  0.00  0.00    +0.000 A 
ATOM     17  C   UNL     1       3.136  62.065  -2.928  0.00  0.00    +0.000 A 
ATOM     18  C   UNL     1       1.878  61.900  -3.463  0.00  0.00    +0.000 A 
ATOM     19  N   UNL     1       1.640  61.260  -4.629  0.00  0.00    +0.000 NA
ATOM     20  C   UNL     1       5.879  59.028  -7.706  0.00  0.00    +0.000 C 
ENDBRANCH   5  10
BRANCH   1  21
ATOM     21  C   UNL     1       9.346  62.786  -5.411  0.00  0.00    +0.000 A 
ATOM     22  C   UNL     1       9.966  63.792  -4.627  0.00  0.00    +0.000 A 
ATOM     23  N   UNL     1      10.583  64.700  -5.390  0.00  0.00    +0.000 NA
ATOM     24  O   UNL     1      10.380  64.281  -6.695  0.00  0.00    +0.000 OA
ATOM     25  C   UNL     1       9.631  63.146  -6.711  0.00  0.00    +0.000 A 
ATOM     26  C   UNL     1       9.319  62.568  -8.036  0.00  0.00    +0.000 C 
ATOM     27  C   UNL     1       9.992  63.939  -3.157  0.00  0.00    +0.000 C 
ENDBRANCH   1  21
BRANCH   8  28
ATOM     28  C   UNL     1       7.328  56.521  -2.180  0.00  0.00    +0.000 C 
ATOM     29  C   UNL     1       7.951  56.460  -0.810  0.00  0.00    +0.000 C 
ATOM     30  C   UNL     1       8.546  55.671  -1.936  0.00  0.00    +0.000 C 
ENDBRANCH   8  28
TORSDOF 3
