REMARK  Name = 5zxk_ligand
REMARK  11 active torsions:
REMARK  status: ('A' for Active; 'I' for Inactive)
REMARK    1  A    between atoms: P_1  and  O_2
REMARK    2  A    between atoms: P_1  and  O_4
REMARK    3  A    between atoms: P_1  and  O_12
REMARK    4  A    between atoms: O_4  and  P_5
REMARK    5  A    between atoms: P_5  and  O_6
REMARK    6  A    between atoms: P_5  and  O_8
REMARK    7  A    between atoms: C_9  and  C_13
REMARK    8  A    between atoms: C_10  and  C_11
REMARK    9  A    between atoms: C_11  and  O_12
REMARK   10  A    between atoms: C_13  and  C_14
REMARK   11  A    between atoms: C_14  and  O_15
REMARK                            x       y       z     vdW  Elec       q    Type
REMARK                         _______ _______ _______ _____ _____    ______ ____
ROOT
ATOM      1  P   UNL     1      44.551 148.531  59.758  0.00  0.00    +0.000 P 
ATOM      2  O   UNL     1      43.839 149.305  60.820  0.00  0.00    +0.000 OA
ENDROOT
BRANCH   1   3
ATOM      3  O   UNL     1      43.824 148.158  58.503  0.00  0.00    +0.000 OA
ATOM      4  H   UNL     1      44.414 147.667  57.926  0.00  0.00    +0.000 HD
ENDBRANCH   1   3
BRANCH   1   5
ATOM      5  O   UNL     1      45.254 147.257  60.470  0.00  0.00    +0.000 OA
BRANCH   5   6
ATOM      6  P   UNL     1      46.304 146.047  60.085  0.00  0.00    +0.000 P 
ATOM      7  O   UNL     1      46.654 146.349  58.632  0.00  0.00    +0.000 OA
BRANCH   6   8
ATOM      8  O   UNL     1      45.499 144.768  60.341  0.00  0.00    +0.000 OA
ATOM      9  H   UNL     1      45.336 144.677  61.283  0.00  0.00    +0.000 HD
ENDBRANCH   6   8
BRANCH   6  10
ATOM     10  O   UNL     1      47.544 146.113  61.001  0.00  0.00    +0.000 OA
ATOM     11  H   UNL     1      47.284 145.918  61.904  0.00  0.00    +0.000 HD
ENDBRANCH   6  10
ENDBRANCH   5   6
ENDBRANCH   1   5
BRANCH   1  12
ATOM     12  O   UNL     1      45.838 149.321  59.210  0.00  0.00    +0.000 OA
BRANCH  12  13
ATOM     13  C   UNL     1      46.760 149.878  60.178  0.00  0.00    +0.000 C 
BRANCH  13  15
ATOM     14  C   UNL     1      46.783 152.977  60.243  0.00  0.00    +0.000 C 
ATOM     15  C   UNL     1      47.747 150.785  59.527  0.00  0.00    +0.000 C 
ATOM     16  C   UNL     1      47.742 152.119  59.493  0.00  0.00    +0.000 C 
BRANCH  16  17
ATOM     17  C   UNL     1      48.801 152.860  58.612  0.00  0.00    +0.000 C 
BRANCH  17  18
ATOM     18  O   UNL     1      49.420 151.996  57.659  0.00  0.00    +0.000 OA
ATOM     19  H   UNL     1      50.059 152.494  57.145  0.00  0.00    +0.000 HD
ENDBRANCH  17  18
ENDBRANCH  16  17
ENDBRANCH  13  15
ENDBRANCH  12  13
ENDBRANCH   1  12
TORSDOF 10
