REMARK  Name = 6py0_ligand
REMARK  11 active torsions:
REMARK  status: ('A' for Active; 'I' for Inactive)
REMARK    1  A    between atoms: C_1  and  C_17
REMARK    2  A    between atoms: C_1  and  C_18
REMARK    3  A    between atoms: C_5  and  C_19
REMARK    4  A    between atoms: C_6  and  C_7
REMARK    5  A    between atoms: C_8  and  C_9
REMARK    6  A    between atoms: C_9  and  C_20
REMARK    7  A    between atoms: C_10  and  C_11
REMARK    8  A    between atoms: C_12  and  C_13
REMARK    9  A    between atoms: C_13  and  C_21
REMARK   10  A    between atoms: C_14  and  C_15
REMARK   11  A    between atoms: C_15  and  O_16
REMARK                            x       y       z     vdW  Elec       q    Type
REMARK                         _______ _______ _______ _____ _____    ______ ____
ROOT
ATOM      1  C   UNL     1      -7.580   0.807 -11.206  0.00  0.00    +0.000 C 
ATOM      2  C   UNL     1      -7.445   0.443  -9.952  0.00  0.00    +0.000 C 
ENDROOT
BRANCH   1   8
ATOM      3  C   UNL     1      -5.081   1.349 -11.894  0.00  0.00    +0.000 C 
ATOM      4  C   UNL     1      -3.893   0.454 -12.245  0.00  0.00    +0.000 C 
ATOM      5  C   UNL     1      -4.206  -0.551 -13.368  0.00  0.00    +0.000 C 
ATOM      6  C   UNL     1      -5.600  -1.147 -13.240  0.00  0.00    +0.000 C 
ATOM      7  C   UNL     1      -6.522   0.037 -13.239  0.00  0.00    +0.000 C 
ATOM      8  C   UNL     1      -6.435   0.714 -12.127  0.00  0.00    +0.000 C 
ATOM      9  C   UNL     1      -4.990   2.574 -12.772  0.00  0.00    +0.000 C 
ATOM     10  C   UNL     1      -4.947   1.725 -10.436  0.00  0.00    +0.000 C 
ATOM     11  C   UNL     1      -7.346   0.493 -14.398  0.00  0.00    +0.000 C 
ENDBRANCH   1   8
BRANCH   2  12
ATOM     12  C   UNL     1      -8.476   0.499  -8.911  0.00  0.00    +0.000 C 
ATOM     13  C   UNL     1      -8.326   1.406  -7.952  0.00  0.00    +0.000 C 
ATOM     14  C   UNL     1      -9.614  -0.463  -8.918  0.00  0.00    +0.000 C 
BRANCH  13  15
ATOM     15  C   UNL     1      -9.201   1.539  -6.813  0.00  0.00    +0.000 C 
ATOM     16  C   UNL     1      -8.726   0.926  -5.734  0.00  0.00    +0.000 C 
BRANCH  16  17
ATOM     17  C   UNL     1      -9.308   0.838  -4.394  0.00  0.00    +0.000 C 
ATOM     18  C   UNL     1      -8.853  -0.087  -3.546  0.00  0.00    +0.000 C 
ATOM     19  C   UNL     1     -10.370   1.781  -3.968  0.00  0.00    +0.000 C 
BRANCH  18  20
ATOM     20  C   UNL     1      -9.417  -0.204  -2.153  0.00  0.00    +0.000 C 
BRANCH  20  21
ATOM     21  O   UNL     1      -8.663  -1.170  -1.404  0.00  0.00    +0.000 OA
ATOM     22  H   UNL     1      -9.026  -1.241  -0.518  0.00  0.00    +0.000 HD
ENDBRANCH  20  21
ENDBRANCH  18  20
ENDBRANCH  16  17
ENDBRANCH  13  15
ENDBRANCH   2  12
TORSDOF 6
