REMARK  Name = 6dz0_ligand
REMARK  9 active torsions:
REMARK  status: ('A' for Active; 'I' for Inactive)
REMARK    1  A    between atoms: C_10  and  C_11
REMARK    2  A    between atoms: C_11  and  N_12
REMARK    3  A    between atoms: C_14  and  O_15
REMARK    4  A    between atoms: C_17  and  C_18
REMARK    5  A    between atoms: C_18  and  S_19
REMARK    6  A    between atoms: S_19  and  C_20
REMARK    7  A    between atoms: C_20  and  C_21
REMARK    8  A    between atoms: C_21  and  C_22
REMARK    9  A    between atoms: C_22  and  C_23
REMARK                            x       y       z     vdW  Elec       q    Type
REMARK                         _______ _______ _______ _____ _____    ______ ____
ROOT
ATOM      1  N   UNL     1     105.886  60.133  52.056  0.00  0.00    +0.000 N 
ATOM      2  C   UNL     1     106.376  61.463  52.522  0.00  0.00    +0.000 C 
ATOM      3  C   UNL     1     105.746  61.499  53.894  0.00  0.00    +0.000 C 
ATOM      4  C   UNL     1     104.435  60.133  52.342  0.00  0.00    +0.000 C 
ATOM      5  C   UNL     1     104.331  60.961  53.633  0.00  0.00    +0.000 C 
ATOM      6  H   UNL     1     106.385  59.395  52.552  0.00  0.00    +0.000 HD
ENDROOT
BRANCH   3   7
ATOM      7  O   UNL     1     106.445  60.642  54.821  0.00  0.00    +0.000 OA
ATOM      8  H   UNL     1     106.020  60.688  55.681  0.00  0.00    +0.000 HD
ENDBRANCH   3   7
BRANCH   1   9
ATOM      9  C   UNL     1     106.182  59.803  50.668  0.00  0.00    +0.000 C 
BRANCH   9  19
ATOM     10  N   UNL     1     105.469  64.028  46.197  0.00  0.00    +0.000 N 
ATOM     11  C   UNL     1     106.126  63.560  47.286  0.00  0.00    +0.000 A 
ATOM     12  N   UNL     1     107.251  64.136  47.782  0.00  0.00    +0.000 NA
ATOM     13  C   UNL     1     107.908  63.607  48.840  0.00  0.00    +0.000 A 
ATOM     14  N   UNL     1     107.521  62.507  49.513  0.00  0.00    +0.000 NA
ATOM     15  C   UNL     1     105.640  62.364  47.929  0.00  0.00    +0.000 A 
ATOM     16  C   UNL     1     106.398  61.890  49.062  0.00  0.00    +0.000 A 
ATOM     17  N   UNL     1     104.569  61.510  47.751  0.00  0.00    +0.000 NA
ATOM     18  C   UNL     1     104.636  60.521  48.680  0.00  0.00    +0.000 A 
ATOM     19  C   UNL     1     105.725  60.688  49.538  0.00  0.00    +0.000 A 
ATOM     20  H   UNL     1     105.816  64.853  45.707  0.00  0.00    +0.000 HD
ATOM     21  H   UNL     1     104.627  63.556  45.867  0.00  0.00    +0.000 HD
ENDBRANCH   9  19
ENDBRANCH   1   9
BRANCH   5  22
ATOM     22  C   UNL     1     103.361  62.117  53.477  0.00  0.00    +0.000 C 
BRANCH  22  23
ATOM     23  S   UNL     1     101.684  61.629  53.086  0.00  0.00    +0.000 S 
BRANCH  23  24
ATOM     24  C   UNL     1     100.766  61.688  54.575  0.00  0.00    +0.000 C 
BRANCH  24  25
ATOM     25  C   UNL     1     101.405  61.066  55.796  0.00  0.00    +0.000 C 
BRANCH  25  26
ATOM     26  C   UNL     1     100.435  61.144  56.986  0.00  0.00    +0.000 C 
BRANCH  26  27
ATOM     27  C   UNL     1     100.375  62.535  57.459  0.00  0.00    +0.000 C 
ATOM     28  C   UNL     1     100.308  63.765  57.785  0.00  0.00    +0.000 C 
ENDBRANCH  26  27
ENDBRANCH  25  26
ENDBRANCH  24  25
ENDBRANCH  23  24
ENDBRANCH  22  23
ENDBRANCH   5  22
TORSDOF 9
