REMARK  Name = 6d3z_ligand
REMARK  26 active torsions:
REMARK  status: ('A' for Active; 'I' for Inactive)
REMARK    1  A    between atoms: CA_6  and  CB_9
REMARK    2  A    between atoms: CB_9  and  CG_10
REMARK    3  A    between atoms: CG_10  and  CD_11
REMARK    4  A    between atoms: CD_11  and  NE_12
REMARK    5  A    between atoms: CA_23  and  CB_26
REMARK    6  A    between atoms: CB_26  and  CG_27
REMARK    7  A    between atoms: CZ_32  and  OH_33
REMARK    8  A    between atoms: CA_35  and  CB_38
REMARK    9  A    between atoms: CB_38  and  CG_39
REMARK   10  A    between atoms: CG_39  and  CD_40
REMARK   11  A    between atoms: CD_40  and  CE_41
REMARK   12  A    between atoms: CE_41  and  NZ_42
REMARK   13  A    between atoms: C_44  and  C_47
REMARK   14  A    between atoms: C_47  and  O_48
REMARK   15  A    between atoms: C_50  and  C_53
REMARK   16  A    between atoms: C_53  and  C_54
REMARK   17  A    between atoms: C_54  and  C_55
REMARK   18  A    between atoms: C_55  and  N_56
REMARK   19  A    between atoms: C_75  and  C_78
REMARK   20  A    between atoms: C_78  and  C_79
REMARK   21  A    between atoms: C_78  and  C_80
REMARK   22  A    between atoms: C_79  and  C_81
REMARK   23  A    between atoms: C_89  and  C_92
REMARK   24  A    between atoms: C_92  and  C_93
REMARK   25  A    between atoms: C_107  and  C_110
REMARK   26  A    between atoms: C_110  and  C_111
REMARK                            x       y       z     vdW  Elec       q    Type
REMARK                         _______ _______ _______ _____ _____    ______ ____
ROOT
ATOM      1  N   UNK A   5     -13.346  93.682   4.883  0.00  0.00    +0.000 N 
ATOM      2  C   UNK A   0     -12.896  92.970   6.066  0.00  0.00    +0.000 C 
ATOM      3  C   UNK A   0     -11.407  93.099   6.361  0.00  0.00    +0.000 C 
ATOM      4  O   UNK A   0     -10.930  92.634   7.413  0.00  0.00    +0.000 OA
ATOM      5  N   ARG A   1     -10.677  93.720   5.431  0.00  0.00    +0.000 N 
ATOM      6  CA  ARG A   1      -9.249  93.967   5.616  0.00  0.00    +0.000 C 
ATOM      7  C   ARG A   1      -9.001  94.802   6.861  0.00  0.00    +0.000 C 
ATOM      8  O   ARG A   1      -9.610  95.859   7.040  0.00  0.00    +0.000 OA
ATOM      9  N   UNK A   2      -8.089  94.347   7.710  0.00  0.00    +0.000 N 
ATOM     10  C   UNK A   2      -7.525  95.196   8.751  0.00  0.00    +0.000 C 
ATOM     11  C   UNK A   2      -6.024  95.234   8.542  0.00  0.00    +0.000 C 
ATOM     12  O   UNK A   2      -5.355  94.198   8.628  0.00  0.00    +0.000 OA
ATOM     13  C   UNK A   2      -7.854  94.698  10.162  0.00  0.00    +0.000 C 
ATOM     14  S   UNK A   2      -9.534  95.046  10.746  0.00  0.00    +0.000 S 
ATOM     15  N   TYR A   3      -5.504  96.416   8.251  0.00  0.00    +0.000 N 
ATOM     16  CA  TYR A   3      -4.067  96.616   8.193  0.00  0.00    +0.000 C 
ATOM     17  C   TYR A   3      -3.533  96.680   9.616  0.00  0.00    +0.000 C 
ATOM     18  O   TYR A   3      -4.182  97.238  10.505  0.00  0.00    +0.000 OA
ATOM     19  N   LYS A   4      -2.354  96.088   9.839  0.00  0.00    +0.000 N 
ATOM     20  CA  LYS A   4      -1.985  95.637  11.177  0.00  0.00    +0.000 C 
ATOM     21  C   LYS A   4      -1.179  96.660  11.989  0.00  0.00    +0.000 C 
ATOM     22  O   LYS A   4      -0.389  96.260  12.862  0.00  0.00    +0.000 OA
ATOM     23  N   UNK A   5      -1.364  97.960  11.757  0.00  0.00    +0.000 N 
ATOM     24  C   UNK A   5      -0.810  98.960  12.676  0.00  0.00    +0.000 C 
ATOM     25  C   UNK A   5      -1.553  98.928  14.019  0.00  0.00    +0.000 C 
ATOM     26  O   UNK A   5      -2.529  98.190  14.206  0.00  0.00    +0.000 OA
ATOM     27  N   UNK A   5      -1.102  99.752  14.962  0.00  0.00    +0.000 N 
ATOM     28  C   UNK A   5      -1.814  99.962  16.228  0.00  0.00    +0.000 C 
ATOM     29  C   UNK A   5      -2.109 101.447  16.420  0.00  0.00    +0.000 C 
ATOM     30  O   UNK A   5      -1.166 102.247  16.571  0.00  0.00    +0.000 OA
ATOM     31  N   UNK A   5      -3.380 101.878  16.423  0.00  0.00    +0.000 N 
ATOM     32  C   UNK A   5      -4.568 101.061  16.123  0.00  0.00    +0.000 C 
ATOM     33  C   UNK A   5      -4.596 100.584  14.653  0.00  0.00    +0.000 C 
ATOM     34  O   UNK A   5      -3.906 101.176  13.821  0.00  0.00    +0.000 OA
ATOM     35  C   UNK A   5      -5.742 102.011  16.431  0.00  0.00    +0.000 C 
ATOM     36  C   UNK A   5      -5.153 103.389  16.476  0.00  0.00    +0.000 C 
ATOM     37  C   UNK A   5      -3.722 103.243  16.871  0.00  0.00    +0.000 C 
ATOM     38  N   UNK A   5      -5.349  99.526  14.351  0.00  0.00    +0.000 N 
ATOM     39  C   UNK A   5      -5.394  99.016  12.971  0.00  0.00    +0.000 C 
ATOM     40  C   UNK A   5      -6.256  99.881  12.060  0.00  0.00    +0.000 C 
ATOM     41  O   UNK A   5      -7.139 100.614  12.506  0.00  0.00    +0.000 OA
ATOM     42  C   UNK A   5      -6.003  97.614  13.126  0.00  0.00    +0.000 C 
ATOM     43  C   UNK A   5      -6.811  97.680  14.397  0.00  0.00    +0.000 C 
ATOM     44  C   UNK A   5      -6.108  98.679  15.296  0.00  0.00    +0.000 C 
ATOM     45  N   UNK A   5      -5.987  99.774  10.757  0.00  0.00    +0.000 N 
ATOM     46  C   UNK A   5      -6.793 100.419   9.720  0.00  0.00    +0.000 C 
ATOM     47  C   UNK A   5      -7.699  99.354   9.107  0.00  0.00    +0.000 C 
ATOM     48  O   UNK A   5      -7.234  98.493   8.347  0.00  0.00    +0.000 OA
ATOM     49  N   UNK A   5      -8.998  99.422   9.421  0.00  0.00    +0.000 N 
ATOM     50  C   UNK A   5      -9.969  98.401   9.042  0.00  0.00    +0.000 C 
ATOM     51  C   UNK A   5     -11.002  98.966   8.076  0.00  0.00    +0.000 C 
ATOM     52  O   UNK A   5     -11.284 100.170   8.068  0.00  0.00    +0.000 OA
ATOM     53  C   UNK A   5     -10.674  97.829  10.272  0.00  0.00    +0.000 C 
ATOM     54  S   UNK A   5      -9.537  96.987  11.394  0.00  0.00    +0.000 S 
ATOM     55  N   UNK A   5     -11.572  98.079   7.271  0.00  0.00    +0.000 N 
ATOM     56  C   UNK A   5     -12.491  98.445   6.205  0.00  0.00    +0.000 C 
ATOM     57  C   UNK A   5     -13.660  97.474   6.196  0.00  0.00    +0.000 C 
ATOM     58  O   UNK A   5     -13.580  96.390   6.789  0.00  0.00    +0.000 OA
ATOM     59  N   UNK A   5     -14.777  97.845   5.553  0.00  0.00    +0.000 N 
ATOM     60  C   UNK A   5     -15.897  96.896   5.441  0.00  0.00    +0.000 C 
ATOM     61  C   UNK A   5     -15.581  95.682   4.577  0.00  0.00    +0.000 C 
ATOM     62  O   UNK A   5     -16.152  94.611   4.817  0.00  0.00    +0.000 OA
ATOM     63  C   UNK A   5     -17.024  97.747   4.831  0.00  0.00    +0.000 C 
ATOM     64  C   UNK A   5     -16.634  99.167   5.097  0.00  0.00    +0.000 C 
ATOM     65  C   UNK A   5     -15.137  99.178   5.035  0.00  0.00    +0.000 C 
ATOM     66  N   UNK A   5     -14.682  95.806   3.597  0.00  0.00    +0.000 N 
ATOM     67  C   UNK A   5     -14.307  94.677   2.737  0.00  0.00    +0.000 C 
ATOM     68  C   UNK A   5     -13.654  93.537   3.530  0.00  0.00    +0.000 C 
ATOM     69  O   UNK A   5     -13.111  92.595   2.944  0.00  0.00    +0.000 OA
ATOM     70  O   UNK A   0     -13.663  93.546   4.765  0.00  0.00    +0.000 OA
ATOM     71  H   ARG A   1     -11.128  94.030   4.570  0.00  0.00    +0.000 HD
ATOM     72  H   UNK A   2      -7.775  93.380   7.632  0.00  0.00    +0.000 HD
ATOM     73  H   TYR A   3      -6.126  97.203   8.064  0.00  0.00    +0.000 HD
ATOM     74  H   LYS A   4      -1.705  95.950   9.064  0.00  0.00    +0.000 HD
ATOM     75  H   UNK A   5      -1.893  98.260  10.938  0.00  0.00    +0.000 HD
ATOM     76  H   UNK A   5      -0.230 100.256  14.799  0.00  0.00    +0.000 HD
ATOM     77  H   UNK A   5      -5.182  99.217  10.471  0.00  0.00    +0.000 HD
ATOM     78  H   UNK A   5      -9.326 100.229   9.952  0.00  0.00    +0.000 HD
ATOM     79  H   UNK A   5     -11.355  97.092   7.406  0.00  0.00    +0.000 HD
ATOM     80  H   UNK A   5     -14.242  96.713   3.441  0.00  0.00    +0.000 HD
ENDROOT
BRANCH  46  81
ATOM     81  C   UNK A   5      -5.922 101.089   8.646  0.00  0.00    +0.000 C 
ATOM     82  C   UNK A   5      -6.769 101.995   7.750  0.00  0.00    +0.000 C 
BRANCH  81  83
ATOM     83  C   UNK A   5      -4.774 101.873   9.282  0.00  0.00    +0.000 C 
ATOM     84  C   UNK A   5      -3.929 102.610   8.267  0.00  0.00    +0.000 C 
ENDBRANCH  81  83
ENDBRANCH  46  81
BRANCH   6  85
ATOM     85  CB  ARG A   1      -8.673  94.714   4.414  0.00  0.00    +0.000 C 
BRANCH  85  86
ATOM     86  CG  ARG A   1      -8.552  93.927   3.149  0.00  0.00    +0.000 C 
BRANCH  86  87
ATOM     87  CD  ARG A   1      -7.662  94.672   2.161  0.00  0.00    +0.000 C 
BRANCH  87  88
ATOM     88  NE  ARG A   1      -7.977  94.238   0.813  0.00  0.00    +0.000 N 
ATOM     89  CZ  ARG A   1      -7.074  94.003  -0.122  0.00  0.00    +0.000 C 
ATOM     90  NH1 ARG A   1      -5.789  94.180   0.159  0.00  0.00    +0.000 NA
ATOM     91  NH2 ARG A   1      -7.459  93.592  -1.332  0.00  0.00    +0.000 N 
ATOM     92  HE  ARG A   1      -8.959  94.106   0.572  0.00  0.00    +0.000 HD
ATOM     93  HH1 ARG A   1      -5.509  94.494   1.088  0.00  0.00    +0.000 HD
ATOM     94 HH21 ARG A   1      -6.762  93.410  -2.054  0.00  0.00    +0.000 HD
ATOM     95 HH22 ARG A   1      -8.450  93.460  -1.534  0.00  0.00    +0.000 HD
ENDBRANCH  87  88
ENDBRANCH  86  87
ENDBRANCH  85  86
ENDBRANCH   6  85
BRANCH  67  96
ATOM     96  C   UNK A   5     -13.369  95.137   1.599  0.00  0.00    +0.000 C 
BRANCH  96  97
ATOM     97  C   UNK A   5     -12.042  95.732   2.103  0.00  0.00    +0.000 C 
ATOM     98  O   UNK A   5     -11.548  95.388   3.178  0.00  0.00    +0.000 OA
ATOM     99  N   UNK A   5     -11.461  96.625   1.306  0.00  0.00    +0.000 N 
ATOM    100  H   UNK A   5     -10.575  97.051   1.578  0.00  0.00    +0.000 HD
ATOM    101  H   UNK A   5     -11.902  96.884   0.423  0.00  0.00    +0.000 HD
ENDBRANCH  96  97
ENDBRANCH  67  96
BRANCH  56 102
ATOM    102  C   UNK A   5     -11.775  98.447   4.847  0.00  0.00    +0.000 C 
BRANCH 102 103
ATOM    103  C   UNK A   5     -10.665  99.457   4.758  0.00  0.00    +0.000 A 
ATOM    104  C   UNK A   5      -9.379  99.132   5.165  0.00  0.00    +0.000 A 
ATOM    105  C   UNK A   5     -10.912 100.739   4.287  0.00  0.00    +0.000 A 
ATOM    106  C   UNK A   5      -8.355 100.066   5.096  0.00  0.00    +0.000 A 
ATOM    107  C   UNK A   5      -9.892 101.678   4.217  0.00  0.00    +0.000 A 
ATOM    108  C   UNK A   5      -8.613 101.340   4.623  0.00  0.00    +0.000 A 
ENDBRANCH 102 103
ENDBRANCH  56 102
BRANCH  28 109
ATOM    109  C   UNK A   5      -1.022  99.433  17.426  0.00  0.00    +0.000 C 
BRANCH 109 110
ATOM    110  C   UNK A   5      -1.769  99.602  18.768  0.00  0.00    +0.000 C 
BRANCH 110 111
ATOM    111  C   UNK A   5      -0.881 100.119  19.886  0.00  0.00    +0.000 C 
BRANCH 111 112
ATOM    112  N   UNK A   5      -1.529 100.011  21.196  0.00  0.00    +0.000 N 
ATOM    113  C   UNK A   5      -0.928 100.252  22.362  0.00  0.00    +0.000 C 
ATOM    114  N   UNK A   5      -1.601 100.125  23.498  0.00  0.00    +0.000 NA
ATOM    115  N   UNK A   5       0.348 100.620  22.395  0.00  0.00    +0.000 N 
ATOM    116  H   UNK A   5      -2.510  99.731  21.218  0.00  0.00    +0.000 HD
ATOM    117  H   UNK A   5      -2.581  99.842  23.481  0.00  0.00    +0.000 HD
ATOM    118  H   UNK A   5       0.803 100.803  23.289  0.00  0.00    +0.000 HD
ATOM    119  H   UNK A   5       0.873 100.720  21.526  0.00  0.00    +0.000 HD
ENDBRANCH 111 112
ENDBRANCH 110 111
ENDBRANCH 109 110
ENDBRANCH  28 109
BRANCH  24 120
ATOM    120  C   UNK A   5      -0.885 100.363  12.066  0.00  0.00    +0.000 C 
BRANCH 120 121
ATOM    121  O   UNK A   5      -2.215 100.726  11.704  0.00  0.00    +0.000 OA
ATOM    122  H   UNK A   5      -2.213 101.609  11.328  0.00  0.00    +0.000 HD
ENDBRANCH 120 121
ENDBRANCH  24 120
BRANCH  16 123
ATOM    123  CB  TYR A   3      -3.751  97.880   7.402  0.00  0.00    +0.000 C 
BRANCH 123 124
ATOM    124  CG  TYR A   3      -3.959  97.623   5.922  0.00  0.00    +0.000 A 
ATOM    125  CD1 TYR A   3      -5.234  97.686   5.357  0.00  0.00    +0.000 A 
ATOM    126  CD2 TYR A   3      -2.891  97.249   5.106  0.00  0.00    +0.000 A 
ATOM    127  CE1 TYR A   3      -5.437  97.413   4.022  0.00  0.00    +0.000 A 
ATOM    128  CE2 TYR A   3      -3.084  96.969   3.753  0.00  0.00    +0.000 A 
ATOM    129  CZ  TYR A   3      -4.358  97.055   3.219  0.00  0.00    +0.000 A 
BRANCH 129 130
ATOM    130  OH  TYR A   3      -4.556  96.782   1.883  0.00  0.00    +0.000 OA
ATOM    131  HH  TYR A   3      -3.717  96.553   1.476  0.00  0.00    +0.000 HD
ENDBRANCH 129 130
ENDBRANCH 123 124
ENDBRANCH  16 123
BRANCH  20 132
ATOM    132  CB  LYS A   4      -1.246  94.302  11.074  0.00  0.00    +0.000 C 
BRANCH 132 133
ATOM    133  CG  LYS A   4      -2.222  93.128  10.972  0.00  0.00    +0.000 C 
BRANCH 133 134
ATOM    134  CD  LYS A   4      -1.538  91.814  10.612  0.00  0.00    +0.000 C 
BRANCH 134 135
ATOM    135  CE  LYS A   4      -2.581  90.743  10.253  0.00  0.00    +0.000 C 
BRANCH 135 136
ATOM    136  NZ  LYS A   4      -1.964  89.398  10.156  0.00  0.00    +0.000 N 
ATOM    137  HZ1 LYS A   4      -2.681  88.713   9.917  0.00  0.00    +0.000 HD
ATOM    138  HZ2 LYS A   4      -1.245  89.406   9.432  0.00  0.00    +0.000 HD
ATOM    139  HZ3 LYS A   4      -1.543  89.153  11.052  0.00  0.00    +0.000 HD
ENDBRANCH 135 136
ENDBRANCH 134 135
ENDBRANCH 133 134
ENDBRANCH 132 133
ENDBRANCH  20 132
TORSDOF 24
