REMARK  Name = 6sen_ligand
REMARK  68 active torsions:
REMARK  status: ('A' for Active; 'I' for Inactive)
REMARK    1  A    between atoms: C_1  and  C_3
REMARK    2  A    between atoms: N_4  and  CA_5
REMARK    3  A    between atoms: CA_5  and  C_6
REMARK    4  A    between atoms: CA_5  and  CB_8
REMARK    5  A    between atoms: CB_8  and  CG1_9
REMARK    6  A    between atoms: CB_8  and  CG2_10
REMARK    7  A    between atoms: CA_12  and  C_13
REMARK    8  A    between atoms: N_18  and  CA_19
REMARK    9  A    between atoms: CA_19  and  C_20
REMARK   10  A    between atoms: CA_19  and  CB_22
REMARK   11  A    between atoms: CB_22  and  CG_23
REMARK   12  A    between atoms: CG_23  and  SD_24
REMARK   13  A    between atoms: SD_24  and  CE_25
REMARK   14  A    between atoms: N_26  and  CA_27
REMARK   15  A    between atoms: CA_27  and  C_28
REMARK   16  A    between atoms: CA_27  and  CB_30
REMARK   17  A    between atoms: CB_30  and  CG_31
REMARK   18  A    between atoms: CG_31  and  CD_32
REMARK   19  A    between atoms: CD_32  and  NE_33
REMARK   20  A    between atoms: N_37  and  CA_38
REMARK   21  A    between atoms: CA_38  and  C_39
REMARK   22  A    between atoms: CA_38  and  CB_41
REMARK   23  A    between atoms: N_42  and  CA_43
REMARK   24  A    between atoms: CA_43  and  C_44
REMARK   25  A    between atoms: CA_43  and  CB_46
REMARK   26  A    between atoms: CB_46  and  CG_47
REMARK   27  A    between atoms: CG_47  and  CD_48
REMARK   28  A    between atoms: CD_48  and  NE_49
REMARK   29  A    between atoms: N_53  and  CA_54
REMARK   30  A    between atoms: CA_54  and  C_55
REMARK   31  A    between atoms: CA_54  and  CB_57
REMARK   32  A    between atoms: CB_57  and  CG_58
REMARK   33  A    between atoms: CG_58  and  CD_59
REMARK   34  A    between atoms: N_62  and  CA_63
REMARK   35  A    between atoms: CA_63  and  C_64
REMARK   36  A    between atoms: CA_63  and  CB_66
REMARK   37  A    between atoms: CB_66  and  CG_67
REMARK   38  A    between atoms: CG_67  and  CD1_68
REMARK   39  A    between atoms: CG_67  and  CD2_69
REMARK   40  A    between atoms: CA_71  and  C_72
REMARK   41  A    between atoms: N_77  and  CA_78
REMARK   42  A    between atoms: CA_78  and  C_79
REMARK   43  A    between atoms: CA_78  and  CB_81
REMARK   44  A    between atoms: N_82  and  C_83
REMARK   45  A    between atoms: C_83  and  C_84
REMARK   46  A    between atoms: C_83  and  C_86
REMARK   47  A    between atoms: C_86  and  O_87
REMARK   48  A    between atoms: N_88  and  C_89
REMARK   49  A    between atoms: C_89  and  C_90
REMARK   50  A    between atoms: C_89  and  C_92
REMARK   51  A    between atoms: C_92  and  C_93
REMARK   52  A    between atoms: N_99  and  C_100
REMARK   53  A    between atoms: C_100  and  C_101
REMARK   54  A    between atoms: C_100  and  C_103
REMARK   55  A    between atoms: C_103  and  C_104
REMARK   56  A    between atoms: N_113  and  C_114
REMARK   57  A    between atoms: C_114  and  C_115
REMARK   58  A    between atoms: C_114  and  C_117
REMARK   59  A    between atoms: C_117  and  C_118
REMARK   60  A    between atoms: C_118  and  C_119
REMARK   61  A    between atoms: C_119  and  O_120
REMARK   62  A    between atoms: N_122  and  C_123
REMARK   63  A    between atoms: C_123  and  C_124
REMARK   64  A    between atoms: C_123  and  C_126
REMARK   65  A    between atoms: C_126  and  C_127
REMARK   66  A    between atoms: C_127  and  C_128
REMARK   67  A    between atoms: C_128  and  O_129
REMARK   68  A    between atoms: C_132  and  C_133
REMARK                            x       y       z     vdW  Elec       q    Type
REMARK                         _______ _______ _______ _____ _____    ______ ____
ROOT
ATOM      1  CA  LEU A   8      -2.643  -1.805  15.379  0.00  0.00    +0.000 C 
ENDROOT
BRANCH   1   2
ATOM      2  C   LEU A   8      -3.366  -1.605  14.052  0.00  0.00    +0.000 C 
ATOM      3  O   LEU A   8      -3.535  -2.574  13.327  0.00  0.00    +0.000 OA
ATOM      4  N   PRO A   9      -3.862  -0.388  13.741  0.00  0.00    +0.000 N 
ATOM      5  CA  PRO A   9      -4.505  -0.178  12.430  0.00  0.00    +0.000 C 
ATOM      6  CB  PRO A   9      -4.807   1.333  12.411  0.00  0.00    +0.000 C 
ATOM      7  CG  PRO A   9      -4.649   1.808  13.794  0.00  0.00    +0.000 C 
ATOM      8  CD  PRO A   9      -3.705   0.885  14.480  0.00  0.00    +0.000 C 
BRANCH   5   9
ATOM      9  C   PRO A   9      -3.532  -0.496  11.284  0.00  0.00    +0.000 C 
ATOM     10  O   PRO A   9      -2.314  -0.292  11.429  0.00  0.00    +0.000 OA
ATOM     11  N   ALA A  10      -4.085  -0.886  10.121  0.00  0.00    +0.000 N 
ATOM     12  H   ALA A  10      -5.098  -1.004  10.101  0.00  0.00    +0.000 HD
BRANCH  11  13
ATOM     13  CA  ALA A  10      -3.351  -1.156   8.878  0.00  0.00    +0.000 C 
ATOM     14  CB  ALA A  10      -4.325  -1.511   7.768  0.00  0.00    +0.000 C 
BRANCH  13  15
ATOM     15  C   ALA A  10      -2.581   0.124   8.486  0.00  0.00    +0.000 C 
ATOM     16  O   ALA A  10      -1.423   0.042   8.085  0.00  0.00    +0.000 OA
ATOM     17  N   UNK A  11      -3.203   1.306   8.692  0.00  0.00    +0.000 N 
ATOM     18  H   UNK A  11      -4.138   1.288   9.099  0.00  0.00    +0.000 HD
BRANCH  17  19
ATOM     19  C   UNK A  11      -2.614   2.627   8.365  0.00  0.00    +0.000 C 
BRANCH  19  20
ATOM     20  C   UNK A  11      -1.314   2.908   9.102  0.00  0.00    +0.000 C 
ATOM     21  O   UNK A  11      -0.497   3.711   8.613  0.00  0.00    +0.000 OA
ATOM     22  N   UNK A  11      -1.105   2.246  10.271  0.00  0.00    +0.000 N 
ATOM     23  H   UNK A  11      -1.825   1.605  10.605  0.00  0.00    +0.000 HD
BRANCH  22  24
ATOM     24  C   UNK A  11       0.115   2.415  11.073  0.00  0.00    +0.000 C 
BRANCH  24  25
ATOM     25  C   UNK A  11       1.391   2.048  10.282  0.00  0.00    +0.000 C 
ATOM     26  O   UNK A  11       2.463   2.585  10.561  0.00  0.00    +0.000 OA
ATOM     27  N   UNK A  11       1.243   1.189   9.263  0.00  0.00    +0.000 N 
ATOM     28  H   UNK A  11       0.302   0.854   9.055  0.00  0.00    +0.000 HD
BRANCH  27  29
ATOM     29  C   UNK A  11       2.343   0.699   8.428  0.00  0.00    +0.000 C 
BRANCH  29  30
ATOM     30  C   UNK A  11       2.284   1.237   6.994  0.00  0.00    +0.000 C 
ATOM     31  O   UNK A  11       2.991   0.732   6.108  0.00  0.00    +0.000 OA
ATOM     32  N   UNK A  11       1.436   2.256   6.771  0.00  0.00    +0.000 N 
ATOM     33  H   UNK A  11       0.924   2.636   7.567  0.00  0.00    +0.000 HD
BRANCH  32  34
ATOM     34  C   UNK A  11       1.202   2.854   5.454  0.00  0.00    +0.000 C 
BRANCH  34  35
ATOM     35  C   UNK A  11       1.533   4.335   5.515  0.00  0.00    +0.000 C 
ATOM     36  O   UNK A  11       0.656   5.181   5.756  0.00  0.00    +0.000 OA
ATOM     37  N   UNK A  11       2.795   4.654   5.255  0.00  0.00    +0.000 N 
ATOM     38  H   UNK A  11       3.482   3.930   5.043  0.00  0.00    +0.000 HD
BRANCH  37  39
ATOM     39  C   UNK A  11       3.183   6.072   5.278  0.00  0.00    +0.000 C 
BRANCH  39  40
ATOM     40  C   UNK A  11       2.301   6.833   4.261  0.00  0.00    +0.000 C 
ATOM     41  O   UNK A  11       2.182   6.370   3.112  0.00  0.00    +0.000 OA
ATOM     42  N   UNK A  11       1.675   7.968   4.660  0.00  0.00    +0.000 N 
ATOM     43  C   UNK A  11       0.905   8.770   3.695  0.00  0.00    +0.000 C 
ATOM     44  C   UNK A  11       0.503  10.006   4.522  0.00  0.00    +0.000 C 
ATOM     45  C   UNK A  11       0.488   9.524   5.934  0.00  0.00    +0.000 C 
ATOM     46  C   UNK A  11       1.691   8.621   5.985  0.00  0.00    +0.000 C 
BRANCH  43  47
ATOM     47  C   UNK A  11       1.769   9.207   2.507  0.00  0.00    +0.000 C 
ATOM     48  O   UNK A  11       2.988   9.361   2.644  0.00  0.00    +0.000 OA
ATOM     49  N   UNK A  11       1.164   9.274   1.311  0.00  0.00    +0.000 N 
ATOM     50  H   UNK A  11       1.713   9.458   0.471  0.00  0.00    +0.000 HD
ATOM     51  H   UNK A  11       0.155   9.141   1.242  0.00  0.00    +0.000 HD
ENDBRANCH  43  47
ENDBRANCH  39  40
BRANCH  39  52
ATOM     52  C   UNK A  11       4.649   6.230   4.882  0.00  0.00    +0.000 C 
BRANCH  52  53
ATOM     53  C   UNK A  11       5.087   7.686   4.911  0.00  0.00    +0.000 C 
BRANCH  53  54
ATOM     54  C   UNK A  11       6.562   7.980   4.702  0.00  0.00    +0.000 C 
ATOM     55  O   UNK A  11       7.339   7.044   4.402  0.00  0.00    +0.000 OA
BRANCH  54  56
ATOM     56  O   UNK A  11       6.939   9.167   4.839  0.00  0.00    +0.000 OA
ATOM     57  H   UNK A  11       6.186   9.716   5.068  0.00  0.00    +0.000 HD
ENDBRANCH  54  56
ENDBRANCH  53  54
ENDBRANCH  52  53
ENDBRANCH  39  52
ENDBRANCH  37  39
ENDBRANCH  34  35
BRANCH  34  58
ATOM     58  C   UNK A  11      -0.268   2.649   5.020  0.00  0.00    +0.000 C 
BRANCH  58  59
ATOM     59  C   UNK A  11      -0.727   1.193   5.082  0.00  0.00    +0.000 C 
BRANCH  59  60
ATOM     60  C   UNK A  11      -2.184   0.893   4.768  0.00  0.00    +0.000 C 
ATOM     61  O   UNK A  11      -2.444  -0.216   4.250  0.00  0.00    +0.000 OA
BRANCH  60  62
ATOM     62  O   UNK A  11      -3.068   1.730   5.071  0.00  0.00    +0.000 OA
ATOM     63  H   UNK A  11      -2.654   2.507   5.453  0.00  0.00    +0.000 HD
ENDBRANCH  60  62
ENDBRANCH  59  60
ENDBRANCH  58  59
ENDBRANCH  34  58
ENDBRANCH  32  34
ENDBRANCH  29  30
BRANCH  29  64
ATOM     64  C   UNK A  11       2.367  -0.849   8.451  0.00  0.00    +0.000 C 
BRANCH  64  65
ATOM     65  C   UNK A  11       2.391  -1.406   9.846  0.00  0.00    +0.000 C 
ATOM     66  C   UNK A  11       1.360  -2.018  10.504  0.00  0.00    +0.000 C 
ATOM     67  C   UNK A  11       3.424  -1.211  10.812  0.00  0.00    +0.000 C 
ATOM     68  N   UNK A  11       1.719  -2.277  11.808  0.00  0.00    +0.000 NA
ATOM     69  C   UNK A  11       2.978  -1.777  12.027  0.00  0.00    +0.000 C 
ATOM     70  C   UNK A  11       4.694  -0.603  10.770  0.00  0.00    +0.000 C 
ATOM     71  C   UNK A  11       3.781  -1.814  13.168  0.00  0.00    +0.000 C 
ATOM     72  C   UNK A  11       5.492  -0.641  11.901  0.00  0.00    +0.000 C 
ATOM     73  C   UNK A  11       5.048  -1.268  13.074  0.00  0.00    +0.000 C 
ENDBRANCH  64  65
ENDBRANCH  29  64
ENDBRANCH  27  29
ENDBRANCH  24  25
BRANCH  24  74
ATOM     74  C   UNK A  11      -0.010   1.623  12.373  0.00  0.00    +0.000 C 
BRANCH  74  75
ATOM     75  C   UNK A  11       0.919   2.022  13.498  0.00  0.00    +0.000 A 
ATOM     76  C   UNK A  11       0.546   2.999  14.414  0.00  0.00    +0.000 A 
ATOM     77  C   UNK A  11       2.147   1.391  13.666  0.00  0.00    +0.000 A 
ATOM     78  C   UNK A  11       1.372   3.316  15.495  0.00  0.00    +0.000 A 
ATOM     79  C   UNK A  11       2.983   1.721  14.736  0.00  0.00    +0.000 A 
ATOM     80  C   UNK A  11       2.582   2.671  15.654  0.00  0.00    +0.000 A 
ENDBRANCH  74  75
ENDBRANCH  24  74
ENDBRANCH  22  24
ENDBRANCH  19  20
BRANCH  19  81
ATOM     81  C   UNK A  11      -3.618   3.733   8.657  0.00  0.00    +0.000 C 
BRANCH  81  82
ATOM     82  O   UNK A  11      -3.860   3.803  10.049  0.00  0.00    +0.000 OA
ATOM     83  H   UNK A  11      -4.494   4.502  10.228  0.00  0.00    +0.000 HD
ENDBRANCH  81  82
ENDBRANCH  19  81
ENDBRANCH  17  19
ENDBRANCH  13  15
ENDBRANCH  11  13
ENDBRANCH   5   9
ENDBRANCH   1   2
BRANCH   1  86
ATOM     84  C   GLN A   7      -3.195  -3.549  16.996  0.00  0.00    +0.000 C 
ATOM     85  O   GLN A   7      -3.710  -2.732  17.750  0.00  0.00    +0.000 OA
ATOM     86  N   LEU A   8      -2.663  -3.211  15.816  0.00  0.00    +0.000 N 
ATOM     87  H   LEU A   8      -2.268  -3.933  15.214  0.00  0.00    +0.000 HD
BRANCH  84  88
ATOM     88  CA  GLN A   7      -3.068  -4.999  17.427  0.00  0.00    +0.000 C 
BRANCH  88  91
ATOM     89  C   ARG A   6      -0.633  -5.376  17.101  0.00  0.00    +0.000 C 
ATOM     90  O   ARG A   6      -0.703  -5.348  15.867  0.00  0.00    +0.000 OA
ATOM     91  N   GLN A   7      -1.699  -5.230  17.907  0.00  0.00    +0.000 N 
ATOM     92  H   GLN A   7      -1.548  -5.283  18.914  0.00  0.00    +0.000 HD
BRANCH  89  93
ATOM     93  CA  ARG A   6       0.708  -5.644  17.782  0.00  0.00    +0.000 C 
BRANCH  93  96
ATOM     94  C   ALA A   5       1.773  -7.548  16.689  0.00  0.00    +0.000 C 
ATOM     95  O   ALA A   5       1.029  -8.336  17.276  0.00  0.00    +0.000 OA
ATOM     96  N   ARG A   6       1.675  -6.228  16.848  0.00  0.00    +0.000 N 
ATOM     97  H   ARG A   6       2.285  -5.613  16.309  0.00  0.00    +0.000 HD
BRANCH  94  98
ATOM     98  CA  ALA A   5       2.828  -8.076  15.694  0.00  0.00    +0.000 C 
ATOM     99  CB  ALA A   5       3.614  -9.266  16.273  0.00  0.00    +0.000 C 
BRANCH  98 102
ATOM    100  C   ARG A   4       3.582  -6.407  14.043  0.00  0.00    +0.000 C 
ATOM    101  O   ARG A   4       2.633  -6.637  13.290  0.00  0.00    +0.000 OA
ATOM    102  N   ALA A   5       3.748  -7.036  15.221  0.00  0.00    +0.000 N 
ATOM    103  H   ALA A   5       4.543  -6.780  15.807  0.00  0.00    +0.000 HD
BRANCH 100 104
ATOM    104  CA  ARG A   4       4.615  -5.339  13.643  0.00  0.00    +0.000 C 
BRANCH 104 107
ATOM    105  C   MET A   3       4.557  -3.973  15.752  0.00  0.00    +0.000 C 
ATOM    106  O   MET A   3       3.334  -3.976  15.849  0.00  0.00    +0.000 OA
ATOM    107  N   ARG A   4       5.230  -4.622  14.767  0.00  0.00    +0.000 N 
ATOM    108  H   ARG A   4       6.249  -4.610  14.812  0.00  0.00    +0.000 HD
BRANCH 105 109
ATOM    109  CA  MET A   3       5.396  -3.277  16.840  0.00  0.00    +0.000 C 
BRANCH 109 112
ATOM    110  C   PRO A   2       6.576  -5.336  17.574  0.00  0.00    +0.000 C 
ATOM    111  O   PRO A   2       5.553  -6.027  17.592  0.00  0.00    +0.000 OA
ATOM    112  N   MET A   3       6.586  -4.037  17.235  0.00  0.00    +0.000 N 
ATOM    113  H   MET A   3       7.480  -3.547  17.253  0.00  0.00    +0.000 HD
BRANCH 110 117
ATOM    114  C   VAL A   1       7.158  -6.380  20.309  0.00  0.00    +0.000 C 
ATOM    115  O   VAL A   1       6.913  -5.177  20.462  0.00  0.00    +0.000 OA
ATOM    116  N   PRO A   2       7.690  -6.864  19.149  0.00  0.00    +0.000 N 
ATOM    117  CA  PRO A   2       7.908  -5.947  18.012  0.00  0.00    +0.000 C 
ATOM    118  CB  PRO A   2       8.507  -6.854  16.927  0.00  0.00    +0.000 C 
ATOM    119  CG  PRO A   2       8.046  -8.229  17.284  0.00  0.00    +0.000 C 
ATOM    120  CD  PRO A   2       8.032  -8.255  18.785  0.00  0.00    +0.000 C 
BRANCH 114 121
ATOM    121  CA  VAL A   1       6.884  -7.348  21.488  0.00  0.00    +0.000 C 
BRANCH 121 125
ATOM    122  C   UNK A   0       8.733  -6.541  22.942  0.00  0.00    +0.000 C 
ATOM    123  O   UNK A   0       9.607  -6.652  22.068  0.00  0.00    +0.000 OA
ATOM    124  C   UNK A   0       9.090  -6.032  24.339  0.00  0.00    +0.000 C 
ATOM    125  N   VAL A   1       7.447  -6.842  22.754  0.00  0.00    +0.000 N 
ATOM    126  H   VAL A   1       6.809  -6.713  23.540  0.00  0.00    +0.000 HD
ENDBRANCH 121 125
BRANCH 121 127
ATOM    127  CB  VAL A   1       5.366  -7.671  21.657  0.00  0.00    +0.000 C 
ATOM    128  CG1 VAL A   1       4.651  -7.846  20.316  0.00  0.00    +0.000 C 
ATOM    129  CG2 VAL A   1       5.159  -8.898  22.540  0.00  0.00    +0.000 C 
ENDBRANCH 121 127
ENDBRANCH 114 121
ENDBRANCH 110 117
ENDBRANCH 109 112
BRANCH 109 130
ATOM    130  CB  MET A   3       5.761  -1.839  16.438  0.00  0.00    +0.000 C 
BRANCH 130 131
ATOM    131  CG  MET A   3       6.351  -1.010  17.577  0.00  0.00    +0.000 C 
BRANCH 131 132
ATOM    132  SD  MET A   3       5.267  -0.657  18.987  0.00  0.00    +0.000 S 
ATOM    133  CE  MET A   3       4.144   0.537  18.265  0.00  0.00    +0.000 C 
ENDBRANCH 131 132
ENDBRANCH 130 131
ENDBRANCH 109 130
ENDBRANCH 105 109
ENDBRANCH 104 107
BRANCH 104 134
ATOM    134  CB  ARG A   4       5.694  -5.948  12.739  0.00  0.00    +0.000 C 
BRANCH 134 135
ATOM    135  CG  ARG A   4       6.320  -4.939  11.778  0.00  0.00    +0.000 C 
BRANCH 135 136
ATOM    136  CD  ARG A   4       5.545  -4.832  10.477  0.00  0.00    +0.000 C 
BRANCH 136 137
ATOM    137  NE  ARG A   4       6.095  -3.800   9.598  0.00  0.00    +0.000 N 
ATOM    138  CZ  ARG A   4       5.545  -3.423   8.448  0.00  0.00    +0.000 C 
ATOM    139  NH1 ARG A   4       6.113  -2.476   7.714  0.00  0.00    +0.000 NA
ATOM    140  NH2 ARG A   4       4.416  -3.983   8.028  0.00  0.00    +0.000 N 
ATOM    141  HE  ARG A   4       6.958  -3.339   9.887  0.00  0.00    +0.000 HD
ATOM    142  HH1 ARG A   4       6.976  -2.034   8.031  0.00  0.00    +0.000 HD
ATOM    143 HH21 ARG A   4       3.994  -3.684   7.149  0.00  0.00    +0.000 HD
ATOM    144 HH22 ARG A   4       3.971  -4.712   8.585  0.00  0.00    +0.000 HD
ENDBRANCH 136 137
ENDBRANCH 135 136
ENDBRANCH 134 135
ENDBRANCH 104 134
ENDBRANCH 100 104
ENDBRANCH  98 102
ENDBRANCH  94  98
ENDBRANCH  93  96
BRANCH  93 145
ATOM    145  CB  ARG A   6       1.284  -4.407  18.505  0.00  0.00    +0.000 C 
BRANCH 145 146
ATOM    146  CG  ARG A   6       2.518  -4.761  19.346  0.00  0.00    +0.000 C 
BRANCH 146 147
ATOM    147  CD  ARG A   6       3.079  -3.575  20.109  0.00  0.00    +0.000 C 
BRANCH 147 148
ATOM    148  NE  ARG A   6       4.271  -3.949  20.878  0.00  0.00    +0.000 N 
ATOM    149  CZ  ARG A   6       4.722  -3.289  21.939  0.00  0.00    +0.000 C 
ATOM    150  NH1 ARG A   6       4.088  -2.213  22.377  0.00  0.00    +0.000 NA
ATOM    151  NH2 ARG A   6       5.800  -3.716  22.585  0.00  0.00    +0.000 N 
ATOM    152  HE  ARG A   6       4.790  -4.774  20.577  0.00  0.00    +0.000 HD
ATOM    153  HH1 ARG A   6       3.248  -1.886  21.899  0.00  0.00    +0.000 HD
ATOM    154 HH21 ARG A   6       6.132  -3.216  23.410  0.00  0.00    +0.000 HD
ATOM    155 HH22 ARG A   6       6.297  -4.544  22.257  0.00  0.00    +0.000 HD
ENDBRANCH 147 148
ENDBRANCH 146 147
ENDBRANCH 145 146
ENDBRANCH  93 145
ENDBRANCH  89  93
ENDBRANCH  88  91
BRANCH  88 156
ATOM    156  CB  GLN A   7      -4.107  -5.371  18.512  0.00  0.00    +0.000 C 
BRANCH 156 157
ATOM    157  CG  GLN A   7      -4.206  -6.882  18.788  0.00  0.00    +0.000 C 
BRANCH 157 158
ATOM    158  CD  GLN A   7      -5.342  -7.294  19.703  0.00  0.00    +0.000 C 
ATOM    159  OE1 GLN A   7      -6.011  -6.492  20.360  0.00  0.00    +0.000 OA
ATOM    160  NE2 GLN A   7      -5.607  -8.577  19.751  0.00  0.00    +0.000 N 
ATOM    161 HE21 GLN A   7      -6.371  -8.918  20.334  0.00  0.00    +0.000 HD
ATOM    162 HE22 GLN A   7      -5.049  -9.234  19.205  0.00  0.00    +0.000 HD
ENDBRANCH 157 158
ENDBRANCH 156 157
ENDBRANCH  88 156
ENDBRANCH  84  88
ENDBRANCH   1  86
BRANCH   1 163
ATOM    163  CB  LEU A   8      -1.187  -1.278  15.293  0.00  0.00    +0.000 C 
BRANCH 163 164
ATOM    164  CG  LEU A   8      -0.389  -1.262  16.618  0.00  0.00    +0.000 C 
ATOM    165  CD1 LEU A   8       1.117  -1.159  16.350  0.00  0.00    +0.000 C 
ATOM    166  CD2 LEU A   8      -0.883  -0.183  17.555  0.00  0.00    +0.000 C 
ENDBRANCH 163 164
ENDBRANCH   1 163
TORSDOF 60
