REMARK  Name = 6g2b_ligand
REMARK  3 active torsions:
REMARK  status: ('A' for Active; 'I' for Inactive)
REMARK    1  A    between atoms: N_1  and  C_9
REMARK    2  A    between atoms: C_3  and  C_5
REMARK    3  A    between atoms: C_4  and  C_6
REMARK                            x       y       z     vdW  Elec       q    Type
REMARK                         _______ _______ _______ _____ _____    ______ ____
ROOT
ATOM      1  N   UNL     1      -3.439   7.217 -18.750  0.00  0.00    +0.000 N 
ATOM      2  N   UNL     1      -4.560   6.205 -20.379  0.00  0.00    +0.000 NA
ATOM      3  C   UNL     1      -4.169   7.456 -20.841  0.00  0.00    +0.000 A 
ATOM      4  C   UNL     1      -3.442   8.111 -19.869  0.00  0.00    +0.000 A 
ATOM      5  C   UNL     1      -2.839   7.427 -17.435  0.00  0.00    +0.000 C 
ATOM      6  C   UNL     1      -4.105   6.111 -19.156  0.00  0.00    +0.000 A 
ENDROOT
BRANCH   3   7
ATOM      7  C   UNL     1      -4.528   7.877 -22.213  0.00  0.00    +0.000 A 
ATOM      8  C   UNL     1      -5.838   7.734 -22.681  0.00  0.00    +0.000 A 
ATOM      9  C   UNL     1      -5.206   8.655 -24.808  0.00  0.00    +0.000 A 
ATOM     10  C   UNL     1      -6.170   8.122 -23.970  0.00  0.00    +0.000 A 
ATOM     11  C   UNL     1      -3.904   8.796 -24.356  0.00  0.00    +0.000 A 
ATOM     12  C   UNL     1      -3.563   8.409 -23.070  0.00  0.00    +0.000 A 
ENDBRANCH   3   7
BRANCH   4  13
ATOM     13  C   UNL     1      -2.836   9.460 -19.850  0.00  0.00    +0.000 A 
ATOM     14  C   UNL     1      -2.967  11.820 -20.220  0.00  0.00    +0.000 A 
ATOM     15  C   UNL     1      -1.008  10.940 -19.437  0.00  0.00    +0.000 A 
ATOM     16  C   UNL     1      -3.573  10.579 -20.250  0.00  0.00    +0.000 A 
ATOM     17  N   UNL     1      -1.712  12.021 -19.800  0.00  0.00    +0.000 NA
ATOM     18  C   UNL     1      -1.522   9.654 -19.439  0.00  0.00    +0.000 A 
ENDBRANCH   4  13
TORSDOF 2
