REMARK  Name = 6i8t_ligand
REMARK  4 active torsions:
REMARK  status: ('A' for Active; 'I' for Inactive)
REMARK    1  A    between atoms: C_1  and  C_25
REMARK    2  A    between atoms: C_2  and  N_11
REMARK    3  A    between atoms: N_7  and  C_23
REMARK    4  A    between atoms: C_10  and  C_15
REMARK                            x       y       z     vdW  Elec       q    Type
REMARK                         _______ _______ _______ _____ _____    ______ ____
ROOT
ATOM      1  C   UNL     1       9.378  21.853  22.696  0.00  0.00    +0.000 A 
ATOM      2  C   UNL     1      10.198  22.430  21.760  0.00  0.00    +0.000 A 
ATOM      3  C   UNL     1       8.182  21.396  22.080  0.00  0.00    +0.000 C 
ATOM      4  N   UNL     1       8.287  21.825  20.714  0.00  0.00    +0.000 N 
ATOM      5  C   UNL     1       9.509  22.364  20.611  0.00  0.00    +0.000 C 
ATOM      6  C   UNL     1       9.763  21.746  23.979  0.00  0.00    +0.000 A 
ATOM      7  C   UNL     1       6.840  21.755  22.720  0.00  0.00    +0.000 C 
ATOM      8  C   UNL     1      11.828  22.835  23.446  0.00  0.00    +0.000 A 
ATOM      9  C   UNL     1      10.989  22.240  24.387  0.00  0.00    +0.000 A 
ATOM     10  O   UNL     1       9.891  22.814  19.536  0.00  0.00    +0.000 OA
ATOM     11  C   UNL     1      11.451  22.946  22.095  0.00  0.00    +0.000 A 
ENDROOT
BRANCH   4  12
ATOM     12  C   UNL     1       7.312  21.733  19.536  0.00  0.00    +0.000 C 
ATOM     13  C   UNL     1       6.274  22.862  19.711  0.00  0.00    +0.000 C 
ATOM     14  C   UNL     1       6.646  20.349  19.249  0.00  0.00    +0.000 C 
ATOM     15  C   UNL     1       5.424  22.935  18.485  0.00  0.00    +0.000 C 
ATOM     16  C   UNL     1       5.626  20.477  18.072  0.00  0.00    +0.000 C 
ATOM     17  N   UNL     1       4.720  21.656  18.253  0.00  0.00    +0.000 N 
ATOM     18  H   UNL     1       4.236  21.378  19.107  0.00  0.00    +0.000 HD
BRANCH  17  24
ATOM     19  C   UNL     1       2.315  21.384  17.749  0.00  0.00    +0.000 C 
ATOM     20  C   UNL     1       2.523  23.518  15.676  0.00  0.00    +0.000 C 
ATOM     21  C   UNL     1       1.193  21.626  16.696  0.00  0.00    +0.000 C 
ATOM     22  C   UNL     1       1.140  23.097  16.206  0.00  0.00    +0.000 C 
ATOM     23  C   UNL     1       3.561  23.341  16.792  0.00  0.00    +0.000 C 
ATOM     24  C   UNL     1       3.672  21.856  17.231  0.00  0.00    +0.000 C 
ENDBRANCH  17  24
ENDBRANCH   4  12
BRANCH  11  25
ATOM     25  C   UNL     1      12.453  23.528  21.224  0.00  0.00    +0.000 C 
ATOM     26  N   UNL     1      12.125  24.007  19.993  0.00  0.00    +0.000 N 
ATOM     27  O   UNL     1      13.641  23.528  21.572  0.00  0.00    +0.000 OA
ATOM     28  H   UNL     1      12.854  24.359  19.372  0.00  0.00    +0.000 HD
ATOM     29  H   UNL     1      11.151  24.014  19.691  0.00  0.00    +0.000 HD
ENDBRANCH  11  25
TORSDOF 3
