REMARK  Name = 6sfc_ligand
REMARK  5 active torsions:
REMARK  status: ('A' for Active; 'I' for Inactive)
REMARK    1  A    between atoms: C_1  and  C_17
REMARK    2  A    between atoms: C_3  and  N_18
REMARK    3  A    between atoms: C_3  and  C_19
REMARK    4  A    between atoms: C_8  and  C_9
REMARK    5  A    between atoms: C_12  and  N_13
REMARK                            x       y       z     vdW  Elec       q    Type
REMARK                         _______ _______ _______ _____ _____    ______ ____
ROOT
ATOM      1  C   UNL     1      34.585  -0.750  35.572  0.00  0.00    +0.000 A 
ATOM      2  C   UNL     1      32.786  -1.097  36.756  0.00  0.00    +0.000 A 
ATOM      3  C   UNL     1      34.412   0.545  36.008  0.00  0.00    +0.000 A 
ATOM      4  S   UNL     1      32.959   0.624  36.969  0.00  0.00    +0.000 S 
ATOM      5  N   UNL     1      33.796  -1.668  36.185  0.00  0.00    +0.000 NA
ATOM      6  C   UNL     1      35.768  -1.342  34.880  0.00  0.00    +0.000 C 
ATOM      7  N   UNL     1      31.615  -1.724  36.896  0.00  0.00    +0.000 N 
ATOM      8  H   UNL     1      31.404  -2.438  36.199  0.00  0.00    +0.000 HD
ENDROOT
BRANCH   3   9
ATOM      9  C   UNL     1      35.527   1.312  35.824  0.00  0.00    +0.000 A 
ATOM     10  C   UNL     1      36.669   0.920  35.029  0.00  0.00    +0.000 A 
ATOM     11  C   UNL     1      37.383   2.053  34.846  0.00  0.00    +0.000 A 
ATOM     12  C   UNL     1      37.083   4.437  35.581  0.00  0.00    +0.000 C 
ATOM     13  N   UNL     1      36.703   3.038  35.469  0.00  0.00    +0.000 N 
ATOM     14  N   UNL     1      35.489   2.647  35.920  0.00  0.00    +0.000 NA
ENDBRANCH   3   9
BRANCH   7  15
ATOM     15  C   UNL     1      30.607  -1.515  37.915  0.00  0.00    +0.000 C 
BRANCH  15  20
ATOM     16  C   UNL     1      27.601  -0.645  35.046  0.00  0.00    +0.000 A 
ATOM     17  C   UNL     1      28.082   0.282  35.955  0.00  0.00    +0.000 A 
ATOM     18  C   UNL     1      28.567   2.130  37.136  0.00  0.00    +0.000 C 
ATOM     19  C   UNL     1      29.043  -0.038  36.882  0.00  0.00    +0.000 A 
ATOM     20  C   UNL     1      29.363  -1.373  37.097  0.00  0.00    +0.000 A 
ATOM     21  C   UNL     1      29.005  -2.288  36.105  0.00  0.00    +0.000 A 
ATOM     22  O   UNL     1      27.776   1.624  36.054  0.00  0.00    +0.000 OA
ATOM     23  O   UNL     1      29.314   1.045  37.695  0.00  0.00    +0.000 OA
ATOM     24  C   UNL     1      28.093  -1.940  35.117  0.00  0.00    +0.000 A 
ENDBRANCH  15  20
ENDBRANCH   7  15
TORSDOF 3
