REMARK  Name = 6uvp_ligand
REMARK  3 active torsions:
REMARK  status: ('A' for Active; 'I' for Inactive)
REMARK    1  A    between atoms: C_1  and  C_4
REMARK    2  A    between atoms: N_11  and  C_12
REMARK    3  A    between atoms: C_14  and  C_15
REMARK                            x       y       z     vdW  Elec       q    Type
REMARK                         _______ _______ _______ _____ _____    ______ ____
ROOT
ATOM      1  C   UNL     1      24.480  55.879  86.587  0.00  0.00    +0.000 C 
ATOM      2  C   UNL     1      23.740  55.607  85.326  0.00  0.00    +0.000 C 
ATOM      3  C   UNL     1      23.270  55.030  86.632  0.00  0.00    +0.000 C 
ENDROOT
BRANCH   3   5
ATOM      4  C   UNL     1      22.484  55.019  89.863  0.00  0.00    +0.000 C 
ATOM      5  C   UNL     1      21.975  55.354  87.391  0.00  0.00    +0.000 C 
ATOM      6  N   UNL     1      22.138  54.621  88.671  0.00  0.00    +0.000 N 
ATOM      7  C   UNL     1      20.756  54.746  86.695  0.00  0.00    +0.000 C 
ATOM      8  O   UNL     1      19.614  55.360  87.243  0.00  0.00    +0.000 OA
ATOM      9  C   UNL     1      20.006  56.725  87.191  0.00  0.00    +0.000 C 
ATOM     10  C   UNL     1      21.464  56.800  87.618  0.00  0.00    +0.000 C 
ATOM     11  C   UNL     1      21.566  57.480  88.961  0.00  0.00    +0.000 C 
ATOM     12  S   UNL     1      22.556  56.711  90.283  0.00  0.00    +0.000 S 
ATOM     13  N   UNL     1      22.798  54.141  90.803  0.00  0.00    +0.000 NA
ATOM     14  H   UNL     1      21.944  53.622  88.606  0.00  0.00    +0.000 HD
ATOM     15  H   UNL     1      23.069  54.463  91.732  0.00  0.00    +0.000 HD
ENDBRANCH   3   5
BRANCH   1  18
ATOM     16  C   UNL     1      27.010  55.747  86.396  0.00  0.00    +0.000 C 
ATOM     17  O   UNL     1      27.136  56.333  85.346  0.00  0.00    +0.000 OA
ATOM     18  N   UNL     1      25.788  55.470  87.027  0.00  0.00    +0.000 N 
ATOM     19  H   UNL     1      25.831  54.922  87.886  0.00  0.00    +0.000 HD
BRANCH  16  21
ATOM     20  C   UNL     1      30.488  55.648  87.820  0.00  0.00    +0.000 A 
ATOM     21  C   UNL     1      28.231  55.314  87.135  0.00  0.00    +0.000 A 
ATOM     22  C   UNL     1      30.363  54.525  88.637  0.00  0.00    +0.000 A 
ATOM     23  C   UNL     1      29.164  53.860  88.664  0.00  0.00    +0.000 A 
ATOM     24  C   UNL     1      29.399  56.075  87.061  0.00  0.00    +0.000 A 
ATOM     25  F   UNL     1      31.320  54.038  89.406  0.00  0.00    +0.000 F 
ATOM     26  N   UNL     1      28.112  54.250  87.935  0.00  0.00    +0.000 NA
ENDBRANCH  16  21
ENDBRANCH   1  18
TORSDOF 3
