REMARK  Name = 6qrf_ligand
REMARK  4 active torsions:
REMARK  status: ('A' for Active; 'I' for Inactive)
REMARK    1  A    between atoms: C_1  and  C_12
REMARK    2  A    between atoms: C_5  and  C_6
REMARK    3  A    between atoms: C_5  and  O_11
REMARK    4  A    between atoms: O_11  and  C_12
REMARK                            x       y       z     vdW  Elec       q    Type
REMARK                         _______ _______ _______ _____ _____    ______ ____
ROOT
ATOM      1  O   UNL     1     -22.070  18.789 -12.709  0.00  0.00    +0.000 OA
ENDROOT
BRANCH   1   3
ATOM      2  O   UNL     1     -20.273  20.182 -12.972  0.00  0.00    +0.000 OA
ATOM      3  C   UNL     1     -20.683  19.044 -12.873  0.00  0.00    +0.000 C 
BRANCH   3   4
ATOM      4  C   UNL     1     -19.722  17.852 -12.895  0.00  0.00    +0.000 C 
ATOM      5  C   UNL     1     -20.091  16.530 -12.924  0.00  0.00    +0.000 C 
ATOM      6  N   UNL     1     -18.971  15.807 -12.928  0.00  0.00    +0.000 NA
ATOM      7  N   UNL     1     -17.879  16.614 -12.882  0.00  0.00    +0.000 NA
ATOM      8  C   UNL     1     -18.330  17.897 -12.877  0.00  0.00    +0.000 C 
ENDBRANCH   3   4
ENDBRANCH   1   3
BRANCH   1   9
ATOM      9  C   UNL     1     -22.897  19.970 -12.634  0.00  0.00    +0.000 C 
BRANCH   9  10
ATOM     10  C   UNL     1     -23.048  20.394 -11.173  0.00  0.00    +0.000 A 
ATOM     11  C   UNL     1     -23.302  21.152  -8.518  0.00  0.00    +0.000 A 
ATOM     12  C   UNL     1     -23.859  19.662 -10.314  0.00  0.00    +0.000 A 
ATOM     13  C   UNL     1     -22.363  21.508 -10.705  0.00  0.00    +0.000 A 
ATOM     14  C   UNL     1     -22.499  21.883  -9.378  0.00  0.00    +0.000 A 
ATOM     15  C   UNL     1     -23.993  20.039  -8.985  0.00  0.00    +0.000 A 
ENDBRANCH   9  10
ENDBRANCH   1   9
TORSDOF 4
