REMARK  Name = 6od6_ligand
REMARK  5 active torsions:
REMARK  status: ('A' for Active; 'I' for Inactive)
REMARK    1  A    between atoms: C_1  and  C_2
REMARK    2  A    between atoms: C_5  and  C_21
REMARK    3  A    between atoms: C_7  and  N_24
REMARK    4  A    between atoms: C_11  and  C_15
REMARK    5  A    between atoms: C_11  and  C_16
REMARK                            x       y       z     vdW  Elec       q    Type
REMARK                         _______ _______ _______ _____ _____    ______ ____
ROOT
ATOM      1  C   UNL     1     -37.769 -45.482  18.234  0.00  0.00    +0.000 A 
ATOM      2  C   UNL     1     -40.450 -44.992  18.825  0.00  0.00    +0.000 A 
ATOM      3  C   UNL     1     -39.928 -44.610  17.588  0.00  0.00    +0.000 A 
ATOM      4  C   UNL     1     -38.587 -44.859  17.289  0.00  0.00    +0.000 A 
ATOM      5  C   UNL     1     -38.297 -45.867  19.468  0.00  0.00    +0.000 A 
ATOM      6  C   UNL     1     -39.638 -45.622  19.768  0.00  0.00    +0.000 A 
ATOM      7  F   UNL     1     -41.741 -44.756  19.105  0.00  0.00    +0.000 F 
ENDROOT
BRANCH   6   8
ATOM      8  C   UNL     1     -40.174 -46.059  21.139  0.00  0.00    +0.000 C 
ATOM      9  C   UNL     1     -38.358 -44.937  22.919  0.00  0.00    +0.000 A 
ATOM     10  C   UNL     1     -39.337 -42.911  22.937  0.00  0.00    +0.000 A 
ATOM     11  C   UNL     1     -41.364 -46.951  20.913  0.00  0.00    +0.000 C 
ATOM     12  C   UNL     1     -38.267 -46.362  22.673  0.00  0.00    +0.000 C 
ATOM     13  C   UNL     1     -37.453 -44.044  23.457  0.00  0.00    +0.000 A 
ATOM     14  C   UNL     1     -38.072 -42.768  23.467  0.00  0.00    +0.000 A 
ATOM     15  C   UNL     1     -40.630 -44.874  22.026  0.00  0.00    +0.000 C 
ATOM     16  N   UNL     1     -39.136 -46.861  21.839  0.00  0.00    +0.000 N 
ATOM     17  N   UNL     1     -37.319 -47.125  23.294  0.00  0.00    +0.000 NA
ATOM     18  N   UNL     1     -39.484 -44.221  22.615  0.00  0.00    +0.000 N 
ATOM     19  H   UNL     1     -39.102 -47.864  21.655  0.00  0.00    +0.000 HD
ATOM     20  H   UNL     1     -36.661 -46.693  23.942  0.00  0.00    +0.000 HD
ENDBRANCH   6   8
BRANCH   1  22
ATOM     21  C   UNL     1     -35.666 -45.130  17.031  0.00  0.00    +0.000 C 
ATOM     22  N   UNL     1     -36.414 -45.759  17.991  0.00  0.00    +0.000 N 
ATOM     23  O   UNL     1     -36.059 -44.351  16.178  0.00  0.00    +0.000 OA
ATOM     24  H   UNL     1     -35.960 -46.471  18.563  0.00  0.00    +0.000 HD
BRANCH  21  28
ATOM     25  C   UNL     1     -31.612 -46.086  17.171  0.00  0.00    +0.000 A 
ATOM     26  C   UNL     1     -32.031 -45.028  16.367  0.00  0.00    +0.000 A 
ATOM     27  C   UNL     1     -33.384 -44.704  16.318  0.00  0.00    +0.000 A 
ATOM     28  C   UNL     1     -34.245 -45.471  17.084  0.00  0.00    +0.000 A 
ATOM     29  C   UNL     1     -32.561 -46.789  17.901  0.00  0.00    +0.000 A 
ATOM     30  N   UNL     1     -33.883 -46.505  17.875  0.00  0.00    +0.000 NA
BRANCH  25  31
ATOM     31  C   UNL     1     -30.230 -46.436  17.236  0.00  0.00    +0.000 C 
ATOM     32  N   UNL     1     -29.105 -46.717  17.284  0.00  0.00    +0.000 NA
ENDBRANCH  25  31
ENDBRANCH  21  28
ENDBRANCH   1  22
TORSDOF 4
