REMARK  Name = 6j9w_ligand
REMARK  12 active torsions:
REMARK  status: ('A' for Active; 'I' for Inactive)
REMARK    1  A    between atoms: C_1  and  O_7
REMARK    2  A    between atoms: C_2  and  O_8
REMARK    3  A    between atoms: C_3  and  O_9
REMARK    4  A    between atoms: C_4  and  O_10
REMARK    5  A    between atoms: C_5  and  C_6
REMARK    6  A    between atoms: C_6  and  O_12
REMARK    7  A    between atoms: O_7  and  C_13
REMARK    8  A    between atoms: C_14  and  O_19
REMARK    9  A    between atoms: C_15  and  O_20
REMARK   10  A    between atoms: C_16  and  O_21
REMARK   11  A    between atoms: C_17  and  C_18
REMARK   12  A    between atoms: C_18  and  O_23
REMARK                            x       y       z     vdW  Elec       q    Type
REMARK                         _______ _______ _______ _____ _____    ______ ____
ROOT
ATOM      1  O   UNL     1      -6.815 -33.067 -15.361  0.00  0.00    +0.000 OA
ENDROOT
BRANCH   1   2
ATOM      2  C   UNL     1      -6.572 -32.411 -14.095  0.00  0.00    +0.000 C 
ATOM      3  C   UNL     1      -7.880 -32.194 -13.378  0.00  0.00    +0.000 C 
ATOM      4  C   UNL     1      -8.747 -31.212 -14.195  0.00  0.00    +0.000 C 
ATOM      5  C   UNL     1      -7.928 -29.916 -14.373  0.00  0.00    +0.000 C 
ATOM      6  C   UNL     1      -6.619 -30.244 -15.067  0.00  0.00    +0.000 C 
ATOM      7  O   UNL     1      -5.862 -31.180 -14.314  0.00  0.00    +0.000 OA
BRANCH   3   8
ATOM      8  O   UNL     1      -8.615 -33.393 -13.272  0.00  0.00    +0.000 OA
ATOM      9  H   UNL     1      -8.108 -34.034 -12.768  0.00  0.00    +0.000 HD
ENDBRANCH   3   8
BRANCH   4  10
ATOM     10  O   UNL     1      -9.923 -30.828 -13.460  0.00  0.00    +0.000 OA
ATOM     11  H   UNL     1     -10.476 -31.600 -13.318  0.00  0.00    +0.000 HD
ENDBRANCH   4  10
BRANCH   5  12
ATOM     12  O   UNL     1      -8.716 -28.902 -15.060  0.00  0.00    +0.000 OA
ATOM     13  H   UNL     1      -9.527 -28.743 -14.571  0.00  0.00    +0.000 HD
ENDBRANCH   5  12
BRANCH   6  14
ATOM     14  C   UNL     1      -5.758 -29.006 -15.292  0.00  0.00    +0.000 C 
BRANCH  14  15
ATOM     15  O   UNL     1      -4.572 -29.307 -16.087  0.00  0.00    +0.000 OA
ATOM     16  H   UNL     1      -4.057 -28.506 -16.207  0.00  0.00    +0.000 HD
ENDBRANCH  14  15
ENDBRANCH   6  14
ENDBRANCH   1   2
BRANCH   1  17
ATOM     17  C   UNL     1      -5.587 -33.575 -15.956  0.00  0.00    +0.000 C 
ATOM     18  C   UNL     1      -5.862 -34.102 -17.334  0.00  0.00    +0.000 C 
ATOM     19  C   UNL     1      -6.684 -35.383 -17.288  0.00  0.00    +0.000 C 
ATOM     20  C   UNL     1      -6.023 -36.367 -16.351  0.00  0.00    +0.000 C 
ATOM     21  C   UNL     1      -5.843 -35.731 -14.994  0.00  0.00    +0.000 C 
ATOM     22  O   UNL     1      -4.997 -34.570 -15.111  0.00  0.00    +0.000 OA
BRANCH  18  23
ATOM     23  O   UNL     1      -6.520 -33.132 -18.144  0.00  0.00    +0.000 OA
ATOM     24  H   UNL     1      -6.680 -33.501 -19.016  0.00  0.00    +0.000 HD
ENDBRANCH  18  23
BRANCH  19  25
ATOM     25  O   UNL     1      -6.791 -35.954 -18.617  0.00  0.00    +0.000 OA
ATOM     26  H   UNL     1      -7.311 -36.760 -18.577  0.00  0.00    +0.000 HD
ENDBRANCH  19  25
BRANCH  20  27
ATOM     27  O   UNL     1      -6.848 -37.519 -16.216  0.00  0.00    +0.000 OA
ATOM     28  H   UNL     1      -6.428 -38.144 -15.621  0.00  0.00    +0.000 HD
ENDBRANCH  20  27
BRANCH  21  29
ATOM     29  C   UNL     1      -5.136 -36.732 -14.093  0.00  0.00    +0.000 C 
BRANCH  29  30
ATOM     30  O   UNL     1      -5.523 -36.517 -12.815  0.00  0.00    +0.000 OA
ATOM     31  H   UNL     1      -5.082 -37.145 -12.238  0.00  0.00    +0.000 HD
ENDBRANCH  29  30
ENDBRANCH  21  29
ENDBRANCH   1  17
TORSDOF 12
