REMARK  Name = 6pnm_ligand
REMARK  4 active torsions:
REMARK  status: ('A' for Active; 'I' for Inactive)
REMARK    1  A    between atoms: C_1  and  C_2
REMARK    2  A    between atoms: N_4  and  C_5
REMARK    3  A    between atoms: C_11  and  S_12
REMARK    4  A    between atoms: S_12  and  N_15
REMARK                            x       y       z     vdW  Elec       q    Type
REMARK                         _______ _______ _______ _____ _____    ______ ____
ROOT
ATOM      1  C   UNL     1      13.018  11.411  39.073  0.00  0.00    +0.000 A 
ATOM      2  C   UNL     1      12.764  12.594  39.785  0.00  0.00    +0.000 A 
ATOM      3  C   UNL     1      12.258  10.307  39.329  0.00  0.00    +0.000 A 
ATOM      4  C   UNL     1      11.200  10.396  40.214  0.00  0.00    +0.000 A 
ATOM      5  C   UNL     1      10.948  11.540  40.909  0.00  0.00    +0.000 A 
ATOM      6 CL   UNL     1       9.756  11.520  41.819  0.00  0.00    +0.000 Cl
ATOM      7  C   UNL     1      11.712  12.667  40.682  0.00  0.00    +0.000 A 
ENDROOT
BRANCH   1  11
ATOM      8  C   UNL     1      15.846  12.335  36.863  0.00  0.00    +0.000 C 
ATOM      9  C   UNL     1      14.513  12.439  37.652  0.00  0.00    +0.000 C 
ATOM     10  O   UNL     1      13.982  13.522  37.853  0.00  0.00    +0.000 OA
ATOM     11  N   UNL     1      14.097  11.315  38.240  0.00  0.00    +0.000 N 
ATOM     12  H   UNL     1      14.564  10.424  38.075  0.00  0.00    +0.000 HD
ENDBRANCH   1  11
BRANCH   7  13
ATOM     13  S   UNL     1      11.385  14.252  41.513  0.00  0.00    +0.000 S 
ATOM     14  O   UNL     1      12.402  15.214  41.209  0.00  0.00    +0.000 OA
ATOM     15  O   UNL     1      11.197  13.680  42.852  0.00  0.00    +0.000 OA
BRANCH  13  16
ATOM     16  N   UNL     1      10.167  14.879  41.049  0.00  0.00    +0.000 NA
ATOM     17  C   UNL     1       9.753  16.179  41.676  0.00  0.00    +0.000 C 
ATOM     18  C   UNL     1       8.219  16.356  41.562  0.00  0.00    +0.000 C 
ATOM     19  O   UNL     1       7.838  16.132  40.185  0.00  0.00    +0.000 OA
ATOM     20  C   UNL     1       9.011  16.196  39.286  0.00  0.00    +0.000 C 
ATOM     21  C   UNL     1      10.032  15.041  39.596  0.00  0.00    +0.000 C 
ENDBRANCH  13  16
ENDBRANCH   7  13
TORSDOF 3
