REMARK  Name = 6uwp_ligand
REMARK  5 active torsions:
REMARK  status: ('A' for Active; 'I' for Inactive)
REMARK    1  A    between atoms: C_5  and  C_15
REMARK    2  A    between atoms: N_10  and  C_11
REMARK    3  A    between atoms: C_11  and  C_12
REMARK    4  A    between atoms: C_13  and  C_14
REMARK    5  A    between atoms: C_16  and  C_17
REMARK                            x       y       z     vdW  Elec       q    Type
REMARK                         _______ _______ _______ _____ _____    ______ ____
ROOT
ATOM      1  C   UNL     1     -14.737 -25.611   0.147  0.00  0.00    +0.000 A 
ATOM      2  N   UNL     1     -16.822 -23.948   0.941  0.00  0.00    +0.000 NA
ATOM      3  C   UNL     1     -14.588 -19.319  -1.107  0.00  0.00    +0.000 C 
ATOM      4  C   UNL     1     -15.482 -23.577   0.915  0.00  0.00    +0.000 A 
ATOM      5  C   UNL     1     -17.079 -25.194   0.490  0.00  0.00    +0.000 A 
ATOM      6  C   UNL     1     -15.509 -19.977   1.110  0.00  0.00    +0.000 C 
ATOM      7  N   UNL     1     -15.573 -19.750  -0.336  0.00  0.00    +0.000 N 
ATOM      8  C   UNL     1     -14.085 -20.250   1.652  0.00  0.00    +0.000 C 
ATOM      9  C   UNL     1     -13.036 -19.250   1.178  0.00  0.00    +0.000 C 
ATOM     10  S   UNL     1     -12.936 -19.022  -0.617  0.00  0.00    +0.000 S 
ATOM     11  N   UNL     1     -14.798 -19.076  -2.428  0.00  0.00    +0.000 NA
ATOM     12  C   UNL     1     -16.255 -21.297   1.452  0.00  0.00    +0.000 C 
ATOM     13  N   UNL     1     -15.217 -22.273   1.211  0.00  0.00    +0.000 N 
ATOM     14  C   UNL     1     -13.856 -21.718   1.202  0.00  0.00    +0.000 C 
ATOM     15  N   UNL     1     -14.415 -24.331   0.560  0.00  0.00    +0.000 NA
ATOM     16  C   UNL     1     -16.050 -26.041   0.075  0.00  0.00    +0.000 A 
ATOM     17  H   UNL     1     -16.464 -19.943  -0.793  0.00  0.00    +0.000 HD
ATOM     18  H   UNL     1     -15.722 -19.226  -2.833  0.00  0.00    +0.000 HD
ENDROOT
BRANCH   6  21
ATOM     19  C   UNL     1     -17.542 -18.297   1.445  0.00  0.00    +0.000 C 
ATOM     20  C   UNL     1     -16.269 -17.440   1.267  0.00  0.00    +0.000 C 
ATOM     21  C   UNL     1     -16.192 -18.843   1.875  0.00  0.00    +0.000 C 
BRANCH  20  22
ATOM     22  C   UNL     1     -16.113 -16.270   2.141  0.00  0.00    +0.000 C 
ATOM     23  O   UNL     1     -16.488 -16.282   3.318  0.00  0.00    +0.000 OA
ATOM     24  N   UNL     1     -15.509 -15.200   1.556  0.00  0.00    +0.000 N 
ATOM     25  H   UNL     1     -15.177 -15.268   0.594  0.00  0.00    +0.000 HD
BRANCH  24  26
ATOM     26  C   UNL     1     -15.334 -13.955   2.298  0.00  0.00    +0.000 C 
BRANCH  26  28
ATOM     27  C   UNL     1     -15.182 -11.457   1.648  0.00  0.00    +0.000 C 
ATOM     28  C   UNL     1     -14.853 -12.883   1.331  0.00  0.00    +0.000 C 
ATOM     29  C   UNL     1     -15.877 -12.175   0.478  0.00  0.00    +0.000 C 
ATOM     30  C   UNL     1     -15.526 -11.786  -0.934  0.00  0.00    +0.000 C 
ENDBRANCH  26  28
ENDBRANCH  24  26
ENDBRANCH  20  22
ENDBRANCH   6  21
TORSDOF 4
