REMARK  Name = 6npp_ligand
REMARK  5 active torsions:
REMARK  status: ('A' for Active; 'I' for Inactive)
REMARK    1  A    between atoms: C_6  and  C_16
REMARK    2  A    between atoms: C_7  and  C_8
REMARK    3  A    between atoms: C_7  and  O_22
REMARK    4  A    between atoms: C_12  and  C_15
REMARK    5  A    between atoms: C_13  and  N_20
REMARK                            x       y       z     vdW  Elec       q    Type
REMARK                         _______ _______ _______ _____ _____    ______ ____
ROOT
ATOM      1  C   UNL     1     -10.069 -31.085 -14.730  0.00  0.00    +0.000 A 
ATOM      2  C   UNL     1      -9.307 -30.380 -13.818  0.00  0.00    +0.000 A 
ATOM      3  C   UNL     1      -7.997 -30.714 -13.600  0.00  0.00    +0.000 A 
ATOM      4  C   UNL     1      -7.439 -31.779 -14.289  0.00  0.00    +0.000 A 
ATOM      5  C   UNL     1      -8.215 -32.465 -15.193  0.00  0.00    +0.000 A 
ATOM      6  C   UNL     1      -9.531 -32.147 -15.454  0.00  0.00    +0.000 A 
ENDROOT
BRANCH   6  11
ATOM      7  C   UNL     1     -10.870 -32.201 -17.374  0.00  0.00    +0.000 A 
ATOM      8  C   UNL     1     -11.602 -33.133 -18.092  0.00  0.00    +0.000 A 
ATOM      9  C   UNL     1     -11.456 -34.349 -17.434  0.00  0.00    +0.000 A 
ATOM     10  C   UNL     1     -10.617 -34.107 -16.354  0.00  0.00    +0.000 A 
ATOM     11  N   UNL     1     -10.289 -32.815 -16.347  0.00  0.00    +0.000 N 
ENDBRANCH   6  11
BRANCH   1  12
ATOM     12  C   UNL     1     -11.503 -30.637 -14.915  0.00  0.00    +0.000 C 
ATOM     13  O   UNL     1     -12.421 -31.431 -14.597  0.00  0.00    +0.000 OA
BRANCH  12  14
ATOM     14  O   UNL     1     -11.711 -29.488 -15.393  0.00  0.00    +0.000 OA
ATOM     15  H   UNL     1     -10.870 -29.056 -15.562  0.00  0.00    +0.000 HD
ENDBRANCH  12  14
ENDBRANCH   1  12
BRANCH   5  16
ATOM     16  C   UNL     1      -7.558 -33.589 -15.936  0.00  0.00    +0.000 C 
ATOM     17  C   UNL     1      -6.968 -34.464 -16.433  0.00  0.00    +0.000 C 
BRANCH  17  20
ATOM     18  C   UNL     1      -6.535 -36.877 -16.577  0.00  0.00    +0.000 A 
ATOM     19  C   UNL     1      -4.884 -37.731 -18.058  0.00  0.00    +0.000 A 
ATOM     20  C   UNL     1      -6.218 -35.620 -17.023  0.00  0.00    +0.000 A 
ATOM     21  C   UNL     1      -5.252 -35.384 -17.979  0.00  0.00    +0.000 A 
ATOM     22  C   UNL     1      -4.575 -36.467 -18.502  0.00  0.00    +0.000 A 
ATOM     23  C   UNL     1      -5.864 -37.952 -17.112  0.00  0.00    +0.000 A 
ENDBRANCH  17  20
ENDBRANCH   5  16
TORSDOF 5
