REMARK  Name = 6cyg_ligand
REMARK  7 active torsions:
REMARK  status: ('A' for Active; 'I' for Inactive)
REMARK    1  A    between atoms: O_1  and  C_2
REMARK    2  A    between atoms: C_2  and  C_3
REMARK    3  A    between atoms: C_3  and  N_4
REMARK    4  A    between atoms: C_5  and  C_7
REMARK    5  A    between atoms: C_9  and  O_10
REMARK    6  A    between atoms: C_11  and  O_12
REMARK    7  A    between atoms: C_13  and  N_14
REMARK                            x       y       z     vdW  Elec       q    Type
REMARK                         _______ _______ _______ _____ _____    ______ ____
ROOT
ATOM      1  C   UNL     1      -1.920 125.096  49.903  0.00  0.00    +0.000 C 
ATOM      2  O   UNL     1      -1.087 124.047  50.601  0.00  0.00    +0.000 OA
ATOM      3  C   UNL     1      -0.896 126.256  49.596  0.00  0.00    +0.000 C 
ATOM      4  C   UNL     1      -0.092 126.185  50.528  0.00  0.00    +0.000 C 
ATOM      5  C   UNL     1       0.035 124.587  50.884  0.00  0.00    +0.000 C 
ENDROOT
BRANCH   5   6
ATOM      6  N   UNL     1       1.107 124.035  50.112  0.00  0.00    +0.000 N 
ATOM      7  C   UNL     1       1.032 123.525  48.850  0.00  0.00    +0.000 A 
ATOM      8  N   UNL     1       2.266 123.138  48.478  0.00  0.00    +0.000 NA
ATOM      9  C   UNL     1       3.138 123.408  49.512  0.00  0.00    +0.000 A 
ATOM     10  C   UNL     1       2.406 123.976  50.539  0.00  0.00    +0.000 A 
ATOM     11  N   UNL     1       3.034 124.344  51.712  0.00  0.00    +0.000 NA
ATOM     12  C   UNL     1       4.346 124.147  51.868  0.00  0.00    +0.000 A 
ATOM     13  N   UNL     1       5.079 123.589  50.860  0.00  0.00    +0.000 NA
ATOM     14  C   UNL     1       4.512 123.206  49.700  0.00  0.00    +0.000 A 
ATOM     15  N   UNL     1       5.329 122.662  48.689  0.00  0.00    +0.000 N 
ATOM     16  H   UNL     1       4.923 122.403  47.790  0.00  0.00    +0.000 HD
ATOM     17  H   UNL     1       6.326 122.527  48.856  0.00  0.00    +0.000 HD
ENDBRANCH   5   6
BRANCH   1  19
ATOM     18  N   UNL     1      -3.918 124.080  48.804  0.00  0.00    +0.000 N 
ATOM     19  C   UNL     1      -2.559 124.497  48.736  0.00  0.00    +0.000 C 
ATOM     20  O   UNL     1      -1.933 124.315  47.732  0.00  0.00    +0.000 OA
ATOM     21  H   UNL     1      -4.466 124.219  49.653  0.00  0.00    +0.000 HD
BRANCH  18  22
ATOM     22  C   UNL     1      -4.521 123.435  47.602  0.00  0.00    +0.000 C 
BRANCH  22  23
ATOM     23  C   UNL     1      -5.184 124.480  46.758  0.00  0.00    +0.000 C 
BRANCH  23  24
ATOM     24  O   UNL     1      -6.339 124.958  47.454  0.00  0.00    +0.000 OA
ATOM     25  H   UNL     1      -6.775 125.629  46.925  0.00  0.00    +0.000 HD
ENDBRANCH  23  24
ENDBRANCH  22  23
ENDBRANCH  18  22
ENDBRANCH   1  19
BRANCH   3  26
ATOM     26  O   UNL     1      -1.608 127.605  49.556  0.00  0.00    +0.000 OA
ATOM     27  H   UNL     1      -0.970 128.297  49.368  0.00  0.00    +0.000 HD
ENDBRANCH   3  26
BRANCH   4  28
ATOM     28  O   UNL     1      -0.585 126.902  51.741  0.00  0.00    +0.000 OA
ATOM     29  H   UNL     1       0.065 126.825  52.443  0.00  0.00    +0.000 HD
ENDBRANCH   4  28
TORSDOF 7
