REMARK  Name = 6nv7_ligand
REMARK  17 active torsions:
REMARK  status: ('A' for Active; 'I' for Inactive)
REMARK    1  A    between atoms: C_1  and  C_2
REMARK    2  A    between atoms: C_1  and  C_22
REMARK    3  A    between atoms: C_1  and  C_23
REMARK    4  A    between atoms: C_12  and  C_14
REMARK    5  A    between atoms: C_14  and  N_15
REMARK    6  A    between atoms: N_15  and  C_16
REMARK    7  A    between atoms: C_16  and  C_17
REMARK    8  A    between atoms: C_16  and  C_20
REMARK    9  A    between atoms: C_17  and  O_18
REMARK   10  A    between atoms: C_17  and  C_19
REMARK   11  A    between atoms: N_21  and  C_22
REMARK   12  A    between atoms: C_33  and  N_34
REMARK   13  A    between atoms: N_34  and  C_35
REMARK   14  A    between atoms: N_34  and  S_38
REMARK   15  A    between atoms: C_35  and  C_36
REMARK   16  A    between atoms: C_36  and  C_37
REMARK   17  A    between atoms: S_38  and  C_40
REMARK                            x       y       z     vdW  Elec       q    Type
REMARK                         _______ _______ _______ _____ _____    ______ ____
ROOT
ATOM      1  C   UNL     1      -0.138 -17.571  31.767  0.00  0.00    +0.000 A 
ATOM      2  C   UNL     1       0.870 -17.345  30.811  0.00  0.00    +0.000 A 
ATOM      3  C   UNL     1       0.657 -16.302  29.704  0.00  0.00    +0.000 C 
ATOM      4  C   UNL     1      -1.827 -15.638  29.248  0.00  0.00    +0.000 C 
ATOM      5  C   UNL     1      -3.197 -15.007  31.336  0.00  0.00    +0.000 A 
ATOM      6  C   UNL     1      -2.915 -14.114  33.581  0.00  0.00    +0.000 A 
ATOM      7  O   UNL     1      -0.681 -18.974  34.949  0.00  0.00    +0.000 OA
ATOM      8  C   UNL     1      -1.070 -18.695  33.767  0.00  0.00    +0.000 C 
ATOM      9  N   UNL     1      -2.426 -18.566  33.575  0.00  0.00    +0.000 N 
ATOM     10  C   UNL     1      -3.566 -18.616  34.531  0.00  0.00    +0.000 C 
ATOM     11  C   UNL     1      -4.598 -17.594  33.928  0.00  0.00    +0.000 C 
ATOM     12  C   UNL     1       0.045 -18.541  32.780  0.00  0.00    +0.000 A 
ATOM     13  C   UNL     1      -0.443 -15.243  29.784  0.00  0.00    +0.000 C 
ATOM     14  C   UNL     1      -3.048 -14.925  29.812  0.00  0.00    +0.000 C 
ATOM     15  C   UNL     1      -2.758 -13.989  32.193  0.00  0.00    +0.000 A 
ATOM     16  C   UNL     1      -3.499 -15.253  34.145  0.00  0.00    +0.000 A 
ATOM     17  C   UNL     1      -3.956 -16.312  33.336  0.00  0.00    +0.000 A 
ATOM     18  C   UNL     1      -3.770 -16.130  31.951  0.00  0.00    +0.000 A 
ATOM     19  C   UNL     1       2.054 -18.095  30.921  0.00  0.00    +0.000 A 
ATOM     20  C   UNL     1       2.279 -19.055  31.929  0.00  0.00    +0.000 A 
ATOM     21  C   UNL     1       1.243 -19.239  32.850  0.00  0.00    +0.000 A 
ATOM     22  H   UNL     1      -2.699 -18.408  32.605  0.00  0.00    +0.000 HD
ENDROOT
BRANCH  10  23
ATOM     23  C   UNL     1      -4.220 -20.056  34.872  0.00  0.00    +0.000 C 
BRANCH  23  24
ATOM     24  N   UNL     1      -3.304 -21.189  35.057  0.00  0.00    +0.000 N 
ATOM     25  H   UNL     1      -2.592 -21.079  34.335  0.00  0.00    +0.000 HD
ATOM     26  H   UNL     1      -3.896 -22.020  35.030  0.00  0.00    +0.000 HD
BRANCH  24  27
ATOM     27  C   UNL     1      -2.554 -21.285  36.333  0.00  0.00    +0.000 C 
BRANCH  27  28
ATOM     28  C   UNL     1      -3.156 -20.604  37.632  0.00  0.00    +0.000 C 
ATOM     29  N   UNL     1      -4.341 -20.877  38.304  0.00  0.00    +0.000 N 
ATOM     30  O   UNL     1      -2.429 -19.689  38.103  0.00  0.00    +0.000 OA
ATOM     31  H   UNL     1      -4.936 -21.623  37.945  0.00  0.00    +0.000 HD
BRANCH  29  32
ATOM     32  C   UNL     1      -4.801 -20.128  39.543  0.00  0.00    +0.000 C 
BRANCH  32  33
ATOM     33  C   UNL     1      -4.991 -20.970  40.857  0.00  0.00    +0.000 C 
ATOM     34  C   UNL     1      -5.016 -20.087  42.140  0.00  0.00    +0.000 C 
ATOM     35  C   UNL     1      -6.253 -21.835  40.811  0.00  0.00    +0.000 C 
ENDBRANCH  32  33
ENDBRANCH  29  32
ENDBRANCH  27  28
BRANCH  27  36
ATOM     36  C   UNL     1      -1.977 -22.709  36.604  0.00  0.00    +0.000 C 
ATOM     37  C   UNL     1      -2.462 -23.326  37.938  0.00  0.00    +0.000 C 
BRANCH  36  38
ATOM     38  O   UNL     1      -0.598 -22.536  36.616  0.00  0.00    +0.000 OA
ATOM     39  H   UNL     1      -0.172 -23.381  36.779  0.00  0.00    +0.000 HD
ENDBRANCH  36  38
ENDBRANCH  27  36
ENDBRANCH  24  27
ENDBRANCH  23  24
ENDBRANCH  10  23
BRANCH  20  40
ATOM     40  N   UNL     1       3.519 -19.787  31.999  0.00  0.00    +0.000 N 
BRANCH  40  41
ATOM     41  S   UNL     1       4.292 -20.405  30.634  0.00  0.00    +0.000 S 
ATOM     42  O   UNL     1       3.304 -20.570  29.643  0.00  0.00    +0.000 OA
ATOM     43  C   UNL     1       5.438 -19.228  30.102  0.00  0.00    +0.000 C 
ATOM     44  O   UNL     1       5.037 -21.565  30.966  0.00  0.00    +0.000 OA
ENDBRANCH  40  41
BRANCH  40  45
ATOM     45  C   UNL     1       4.152 -19.969  33.370  0.00  0.00    +0.000 C 
BRANCH  45  46
ATOM     46  C   UNL     1       4.521 -18.642  34.113  0.00  0.00    +0.000 C 
ATOM     47  C   UNL     1       5.241 -17.584  33.296  0.00  0.00    +0.000 C 
ENDBRANCH  45  46
ENDBRANCH  40  45
ENDBRANCH  20  40
TORSDOF 12
