REMARK  Name = 6qto_ligand
REMARK  42 active torsions:
REMARK  status: ('A' for Active; 'I' for Inactive)
REMARK    1  A    between atoms: C_1  and  C_3
REMARK    2  A    between atoms: N_4  and  CA_5
REMARK    3  A    between atoms: CA_5  and  C_6
REMARK    4  A    between atoms: CA_5  and  CB_8
REMARK    5  A    between atoms: CB_8  and  CG_9
REMARK    6  A    between atoms: CG_9  and  CD_10
REMARK    7  A    between atoms: CD_10  and  OE2_12
REMARK    8  A    between atoms: N_13  and  CA_14
REMARK    9  A    between atoms: CA_14  and  C_15
REMARK   10  A    between atoms: CA_14  and  CB_17
REMARK   11  A    between atoms: CB_17  and  CG1_18
REMARK   12  A    between atoms: CB_17  and  CG2_19
REMARK   13  A    between atoms: CG1_18  and  CD1_20
REMARK   14  A    between atoms: N_21  and  CA_22
REMARK   15  A    between atoms: CA_22  and  C_23
REMARK   16  A    between atoms: CA_22  and  CB_25
REMARK   17  A    between atoms: CB_25  and  CG_26
REMARK   18  A    between atoms: CG_26  and  CD_27
REMARK   19  A    between atoms: CD_27  and  NE_28
REMARK   20  A    between atoms: N_32  and  CA_33
REMARK   21  A    between atoms: CA_33  and  C_34
REMARK   22  A    between atoms: CA_33  and  CB_36
REMARK   23  A    between atoms: CB_36  and  CG_37
REMARK   24  A    between atoms: CG_37  and  CD_38
REMARK   25  A    between atoms: CD_38  and  NE_39
REMARK   26  A    between atoms: N_43  and  CA_44
REMARK   27  A    between atoms: CA_44  and  C_45
REMARK   28  A    between atoms: CA_44  and  CB_47
REMARK   29  A    between atoms: CB_47  and  CG1_48
REMARK   30  A    between atoms: CB_47  and  CG2_49
REMARK   31  A    between atoms: CA_51  and  C_52
REMARK   32  A    between atoms: N_57  and  CA_58
REMARK   33  A    between atoms: CA_58  and  C_59
REMARK   34  A    between atoms: CA_58  and  CB_61
REMARK   35  A    between atoms: CB_61  and  CG_62
REMARK   36  A    between atoms: CG_62  and  CD_63
REMARK   37  A    between atoms: CD_63  and  OE1_64
REMARK   38  A    between atoms: N_66  and  CA_67
REMARK   39  A    between atoms: CA_67  and  C_68
REMARK   40  A    between atoms: CA_67  and  CB_70
REMARK   41  A    between atoms: C_68  and  OXT_77
REMARK   42  A    between atoms: CB_70  and  CG_71
REMARK                            x       y       z     vdW  Elec       q    Type
REMARK                         _______ _______ _______ _____ _____    ______ ____
ROOT
ATOM      1  CA  ARG A   4      -5.865  -1.425  26.871  0.00  0.00    +0.000 C 
ENDROOT
BRANCH   1   2
ATOM      2  C   ARG A   4      -6.378  -0.098  26.327  0.00  0.00    +0.000 C 
ATOM      3  O   ARG A   4      -5.616   0.713  25.792  0.00  0.00    +0.000 OA
ATOM      4  N   VAL A   5      -7.674   0.126  26.463  0.00  0.00    +0.000 N 
ATOM      5  H   VAL A   5      -8.259  -0.582  26.907  0.00  0.00    +0.000 HD
BRANCH   4   6
ATOM      6  CA  VAL A   5      -8.288   1.368  25.991  0.00  0.00    +0.000 C 
BRANCH   6   7
ATOM      7  C   VAL A   5      -7.969   2.472  26.996  0.00  0.00    +0.000 C 
ATOM      8  O   VAL A   5      -8.120   2.254  28.210  0.00  0.00    +0.000 OA
ATOM      9  N   PRO A   6      -7.535   3.642  26.547  0.00  0.00    +0.000 N 
ATOM     10  CA  PRO A   6      -7.241   4.721  27.495  0.00  0.00    +0.000 C 
ATOM     11  CB  PRO A   6      -6.558   5.779  26.620  0.00  0.00    +0.000 C 
ATOM     12  CG  PRO A   6      -6.933   5.480  25.249  0.00  0.00    +0.000 C 
ATOM     13  CD  PRO A   6      -7.211   4.009  25.157  0.00  0.00    +0.000 C 
BRANCH  10  14
ATOM     14  C   PRO A   6      -8.493   5.290  28.147  0.00  0.00    +0.000 C 
ATOM     15  O   PRO A   6      -9.582   5.262  27.583  0.00  0.00    +0.000 OA
ATOM     16  N   GLU A   7      -8.317   5.829  29.352  0.00  0.00    +0.000 N 
ATOM     17  H   GLU A   7      -7.438   5.656  29.840  0.00  0.00    +0.000 HD
BRANCH  16  18
ATOM     18  CA  GLU A   7      -9.324   6.655  30.005  0.00  0.00    +0.000 C 
BRANCH  18  19
ATOM     19  C   GLU A   7      -8.806   8.087  30.106  0.00  0.00    +0.000 C 
ATOM     20  O   GLU A   7      -7.597   8.319  30.205  0.00  0.00    +0.000 OA
ATOM     21  N   PHE A   8      -9.723   9.051  30.077  0.00  0.00    +0.000 N 
ATOM     22  H   PHE A   8     -10.713   8.811  30.028  0.00  0.00    +0.000 HD
BRANCH  21  23
ATOM     23  CA  PHE A   8      -9.313  10.453  30.115  0.00  0.00    +0.000 C 
BRANCH  23  24
ATOM     24  C   PHE A   8      -8.773  10.828  31.493  0.00  0.00    +0.000 C 
ATOM     25  O   PHE A   8      -9.285  10.368  32.512  0.00  0.00    +0.000 OA
BRANCH  24  26
ATOM     26  OXT PHE A   8      -7.818  11.595  31.603  0.00  0.00    +0.000 OA
ATOM     27  HXT PHE A   8      -7.527  11.870  30.730  0.00  0.00    +0.000 HD
ENDBRANCH  24  26
ENDBRANCH  23  24
BRANCH  23  28
ATOM     28  CB  PHE A   8     -10.464  11.387  29.737  0.00  0.00    +0.000 C 
BRANCH  28  29
ATOM     29  CG  PHE A   8     -10.091  12.843  29.781  0.00  0.00    +0.000 A 
ATOM     30  CD1 PHE A   8      -9.010  13.314  29.055  0.00  0.00    +0.000 A 
ATOM     31  CD2 PHE A   8     -10.814  13.737  30.552  0.00  0.00    +0.000 A 
ATOM     32  CE1 PHE A   8      -8.659  14.650  29.096  0.00  0.00    +0.000 A 
ATOM     33  CE2 PHE A   8     -10.464  15.073  30.597  0.00  0.00    +0.000 A 
ATOM     34  CZ  PHE A   8      -9.389  15.531  29.865  0.00  0.00    +0.000 A 
ENDBRANCH  28  29
ENDBRANCH  23  28
ENDBRANCH  21  23
ENDBRANCH  18  19
BRANCH  18  35
ATOM     35  CB  GLU A   7      -9.651   6.142  31.412  0.00  0.00    +0.000 C 
BRANCH  35  36
ATOM     36  CG  GLU A   7     -10.624   4.961  31.449  0.00  0.00    +0.000 C 
BRANCH  36  37
ATOM     37  CD  GLU A   7     -12.033   5.318  30.975  0.00  0.00    +0.000 C 
ATOM     38  OE2 GLU A   7     -12.580   4.552  30.152  0.00  0.00    +0.000 OA
BRANCH  37  39
ATOM     39  OE1 GLU A   7     -12.597   6.352  31.424  0.00  0.00    +0.000 OA
ATOM     40  HE1 GLU A   7     -12.008   6.795  32.039  0.00  0.00    +0.000 HD
ENDBRANCH  37  39
ENDBRANCH  36  37
ENDBRANCH  35  36
ENDBRANCH  18  35
ENDBRANCH  16  18
ENDBRANCH  10  14
ENDBRANCH   6   7
BRANCH   6  41
ATOM     41  CB  VAL A   5      -9.793   1.182  25.859  0.00  0.00    +0.000 C 
ATOM     42  CG1 VAL A   5     -10.464   2.467  25.405  0.00  0.00    +0.000 C 
ATOM     43  CG2 VAL A   5     -10.135   0.042  24.905  0.00  0.00    +0.000 C 
ENDBRANCH   6  41
ENDBRANCH   4   6
ENDBRANCH   1   2
BRANCH   1  46
ATOM     44  C   ARG A   3      -5.545  -2.623  24.815  0.00  0.00    +0.000 C 
ATOM     45  O   ARG A   3      -6.764  -2.661  24.647  0.00  0.00    +0.000 OA
ATOM     46  N   ARG A   4      -5.009  -2.070  25.892  0.00  0.00    +0.000 N 
ATOM     47  H   ARG A   4      -3.999  -2.097  26.033  0.00  0.00    +0.000 HD
BRANCH  44  48
ATOM     48  CA  ARG A   3      -4.603  -3.193  23.764  0.00  0.00    +0.000 C 
BRANCH  48  51
ATOM     49  C   ILE A   2      -2.209  -2.731  24.033  0.00  0.00    +0.000 C 
ATOM     50  O   ILE A   2      -2.268  -1.775  23.246  0.00  0.00    +0.000 OA
ATOM     51  N   ARG A   3      -3.283  -3.485  24.307  0.00  0.00    +0.000 N 
ATOM     52  H   ARG A   3      -3.172  -4.294  24.919  0.00  0.00    +0.000 HD
BRANCH  49  53
ATOM     53  CA  ILE A   2      -0.889  -3.079  24.714  0.00  0.00    +0.000 C 
BRANCH  53  56
ATOM     54  C   GLU A   1      -1.776  -3.208  26.964  0.00  0.00    +0.000 C 
ATOM     55  O   GLU A   1      -2.175  -2.049  26.905  0.00  0.00    +0.000 OA
ATOM     56  N   ILE A   2      -1.103  -3.782  25.974  0.00  0.00    +0.000 N 
ATOM     57  H   ILE A   2      -0.732  -4.724  26.096  0.00  0.00    +0.000 HD
BRANCH  54  58
ATOM     58  CA  GLU A   1      -2.043  -4.077  28.192  0.00  0.00    +0.000 C 
BRANCH  58  62
ATOM     59  C   UNK A   0      -2.998  -5.988  26.977  0.00  0.00    +0.000 C 
ATOM     60  O   UNK A   0      -3.795  -5.282  26.353  0.00  0.00    +0.000 OA
ATOM     61  C   UNK A   0      -2.956  -7.477  26.763  0.00  0.00    +0.000 C 
ATOM     62  N   GLU A   1      -2.122  -5.503  27.871  0.00  0.00    +0.000 N 
ATOM     63  H   GLU A   1      -1.490  -6.150  28.343  0.00  0.00    +0.000 HD
ENDBRANCH  58  62
BRANCH  58  64
ATOM     64  CB  GLU A   1      -0.959  -3.834  29.239  0.00  0.00    +0.000 C 
BRANCH  64  65
ATOM     65  CG  GLU A   1      -1.277  -4.444  30.593  0.00  0.00    +0.000 C 
BRANCH  65  66
ATOM     66  CD  GLU A   1      -0.162  -4.249  31.598  0.00  0.00    +0.000 C 
ATOM     67  OE1 GLU A   1       0.860  -3.628  31.239  0.00  0.00    +0.000 OA
BRANCH  66  68
ATOM     68  OE2 GLU A   1      -0.307  -4.718  32.747  0.00  0.00    +0.000 OA
ATOM     69  HE2 GLU A   1      -1.160  -5.154  32.808  0.00  0.00    +0.000 HD
ENDBRANCH  66  68
ENDBRANCH  65  66
ENDBRANCH  64  65
ENDBRANCH  58  64
ENDBRANCH  54  58
ENDBRANCH  53  56
BRANCH  53  70
ATOM     70  CB  ILE A   2       0.055  -3.913  23.831  0.00  0.00    +0.000 C 
ATOM     71  CG2 ILE A   2      -0.621  -5.186  23.333  0.00  0.00    +0.000 C 
BRANCH  70  72
ATOM     72  CG1 ILE A   2       0.561  -3.096  22.645  0.00  0.00    +0.000 C 
ATOM     73  CD1 ILE A   2       1.596  -2.068  23.021  0.00  0.00    +0.000 C 
ENDBRANCH  70  72
ENDBRANCH  53  70
ENDBRANCH  49  53
ENDBRANCH  48  51
BRANCH  48  74
ATOM     74  CB  ARG A   3      -5.244  -4.409  23.097  0.00  0.00    +0.000 C 
BRANCH  74  75
ATOM     75  CG  ARG A   3      -4.450  -4.985  21.965  0.00  0.00    +0.000 C 
BRANCH  75  76
ATOM     76  CD  ARG A   3      -4.248  -4.008  20.830  0.00  0.00    +0.000 C 
BRANCH  76  77
ATOM     77  NE  ARG A   3      -5.464  -3.768  20.054  0.00  0.00    +0.000 N 
ATOM     78  CZ  ARG A   3      -5.691  -2.698  19.308  0.00  0.00    +0.000 C 
ATOM     79  NH1 ARG A   3      -4.800  -1.713  19.251  0.00  0.00    +0.000 N 
ATOM     80  NH2 ARG A   3      -6.819  -2.600  18.631  0.00  0.00    +0.000 NA
ATOM     81  HE  ARG A   3      -6.194  -4.480  20.090  0.00  0.00    +0.000 HD
ATOM     82 HH11 ARG A   3      -4.990  -0.886  18.685  0.00  0.00    +0.000 HD
ATOM     83 HH12 ARG A   3      -3.926  -1.785  19.773  0.00  0.00    +0.000 HD
ATOM     84  HH2 ARG A   3      -7.512  -3.347  18.684  0.00  0.00    +0.000 HD
ENDBRANCH  76  77
ENDBRANCH  75  76
ENDBRANCH  74  75
ENDBRANCH  48  74
ENDBRANCH  44  48
ENDBRANCH   1  46
BRANCH   1  85
ATOM     85  CB  ARG A   4      -5.084  -1.193  28.164  0.00  0.00    +0.000 C 
BRANCH  85  86
ATOM     86  CG  ARG A   4      -5.923  -0.562  29.264  0.00  0.00    +0.000 C 
BRANCH  86  87
ATOM     87  CD  ARG A   4      -5.103  -0.263  30.509  0.00  0.00    +0.000 C 
BRANCH  87  88
ATOM     88  NE  ARG A   4      -4.731  -1.473  31.234  0.00  0.00    +0.000 N 
ATOM     89  CZ  ARG A   4      -5.525  -2.109  32.090  0.00  0.00    +0.000 C 
ATOM     90  NH1 ARG A   4      -6.750  -1.658  32.329  0.00  0.00    +0.000 N 
ATOM     91  NH2 ARG A   4      -5.096  -3.202  32.705  0.00  0.00    +0.000 NA
ATOM     92  HE  ARG A   4      -3.800  -1.857  31.073  0.00  0.00    +0.000 HD
ATOM     93 HH11 ARG A   4      -7.357  -2.152  32.983  0.00  0.00    +0.000 HD
ATOM     94 HH12 ARG A   4      -7.085  -0.817  31.858  0.00  0.00    +0.000 HD
ATOM     95  HH2 ARG A   4      -4.157  -3.555  32.522  0.00  0.00    +0.000 HD
ENDBRANCH  87  88
ENDBRANCH  86  87
ENDBRANCH  85  86
ENDBRANCH   1  85
TORSDOF 37
