REMARK  Name = 6qtq_ligand
REMARK  26 active torsions:
REMARK  status: ('A' for Active; 'I' for Inactive)
REMARK    1  A    between atoms: N_1  and  CA_2
REMARK    2  A    between atoms: CA_2  and  C_3
REMARK    3  A    between atoms: CA_2  and  CB_5
REMARK    4  A    between atoms: CB_5  and  CG_6
REMARK    5  A    between atoms: CG_6  and  CD_7
REMARK    6  A    between atoms: CD_7  and  NE_8
REMARK    7  A    between atoms: N_12  and  CA_13
REMARK    8  A    between atoms: CA_13  and  C_14
REMARK    9  A    between atoms: CA_13  and  CB_16
REMARK   10  A    between atoms: CB_16  and  CG_17
REMARK   11  A    between atoms: CZ_22  and  OH_23
REMARK   12  A    between atoms: N_24  and  CA_25
REMARK   13  A    between atoms: CA_25  and  C_26
REMARK   14  A    between atoms: CA_25  and  CB_28
REMARK   15  A    between atoms: N_29  and  CA_30
REMARK   16  A    between atoms: CA_30  and  C_31
REMARK   17  A    between atoms: CA_30  and  CB_33
REMARK   18  A    between atoms: CB_33  and  CG1_34
REMARK   19  A    between atoms: CB_33  and  CG2_35
REMARK   20  A    between atoms: N_36  and  CA_37
REMARK   21  A    between atoms: CA_37  and  C_38
REMARK   22  A    between atoms: CA_37  and  CB_40
REMARK   23  A    between atoms: CB_40  and  CG1_41
REMARK   24  A    between atoms: CB_40  and  CG2_42
REMARK   25  A    between atoms: CA_44  and  C_45
REMARK   26  A    between atoms: C_45  and  OXT_50
REMARK                            x       y       z     vdW  Elec       q    Type
REMARK                         _______ _______ _______ _____ _____    ______ ____
ROOT
ATOM      1  C   TYR A   2      -2.725   4.014 -24.079  0.00  0.00    +0.000 C 
ATOM      2  O   TYR A   2      -3.300   4.838 -24.793  0.00  0.00    +0.000 OA
ATOM      3  N   ALA A   3      -3.347   3.279 -23.163  0.00  0.00    +0.000 N 
ATOM      4  H   ALA A   3      -2.806   2.608 -22.617  0.00  0.00    +0.000 HD
ENDROOT
BRANCH   3   5
ATOM      5  CA  ALA A   3      -4.776   3.401 -22.914  0.00  0.00    +0.000 C 
ATOM      6  CB  ALA A   3      -5.141   4.763 -22.317  0.00  0.00    +0.000 C 
BRANCH   5   7
ATOM      7  C   ALA A   3      -5.603   3.108 -24.164  0.00  0.00    +0.000 C 
ATOM      8  O   ALA A   3      -6.674   3.699 -24.366  0.00  0.00    +0.000 OA
ATOM      9  N   VAL A   4      -5.122   2.174 -24.981  0.00  0.00    +0.000 N 
ATOM     10  H   VAL A   4      -4.205   1.776 -24.779  0.00  0.00    +0.000 HD
BRANCH   9  11
ATOM     11  CA  VAL A   4      -5.849   1.694 -26.154  0.00  0.00    +0.000 C 
BRANCH  11  12
ATOM     12  C   VAL A   4      -6.393   0.301 -25.857  0.00  0.00    +0.000 C 
ATOM     13  O   VAL A   4      -5.642  -0.604 -25.463  0.00  0.00    +0.000 OA
ATOM     14  N   VAL A   5      -7.692   0.128 -26.069  0.00  0.00    +0.000 N 
ATOM     15  H   VAL A   5      -8.242   0.892 -26.462  0.00  0.00    +0.000 HD
BRANCH  14  16
ATOM     16  CA  VAL A   5      -8.350  -1.143 -25.747  0.00  0.00    +0.000 C 
BRANCH  16  17
ATOM     17  C   VAL A   5      -7.924  -2.197 -26.759  0.00  0.00    +0.000 C 
ATOM     18  O   VAL A   5      -7.846  -1.901 -27.967  0.00  0.00    +0.000 OA
ATOM     19  N   PRO A   6      -7.643  -3.431 -26.336  0.00  0.00    +0.000 N 
ATOM     20  CA  PRO A   6      -7.425  -4.493 -27.323  0.00  0.00    +0.000 C 
ATOM     21  CB  PRO A   6      -6.914  -5.672 -26.489  0.00  0.00    +0.000 C 
ATOM     22  CG  PRO A   6      -7.235  -5.373 -25.101  0.00  0.00    +0.000 C 
ATOM     23  CD  PRO A   6      -7.392  -3.880 -24.954  0.00  0.00    +0.000 C 
BRANCH  20  24
ATOM     24  C   PRO A   6      -8.728  -4.844 -28.039  0.00  0.00    +0.000 C 
ATOM     25  O   PRO A   6      -8.826  -4.408 -29.182  0.00  0.00    +0.000 OA
BRANCH  24  26
ATOM     26  OXT PRO A   6      -9.516  -5.519 -27.383  0.00  0.00    +0.000 OA
ATOM     27  HXT PRO A   6      -9.140  -5.697 -26.518  0.00  0.00    +0.000 HD
ENDBRANCH  24  26
ENDBRANCH  20  24
ENDBRANCH  16  17
BRANCH  16  28
ATOM     28  CB  VAL A   5      -9.864  -0.957 -25.772  0.00  0.00    +0.000 C 
ATOM     29  CG1 VAL A   5     -10.568  -2.256 -25.455  0.00  0.00    +0.000 C 
ATOM     30  CG2 VAL A   5     -10.311   0.119 -24.785  0.00  0.00    +0.000 C 
ENDBRANCH  16  28
ENDBRANCH  14  16
ENDBRANCH  11  12
BRANCH  11  31
ATOM     31  CB  VAL A   4      -4.962   1.697 -27.410  0.00  0.00    +0.000 C 
ATOM     32  CG1 VAL A   4      -5.699   1.084 -28.592  0.00  0.00    +0.000 C 
ATOM     33  CG2 VAL A   4      -4.516   3.115 -27.745  0.00  0.00    +0.000 C 
ENDBRANCH  11  31
ENDBRANCH   9  11
ENDBRANCH   5   7
ENDBRANCH   3   5
BRANCH   1  34
ATOM     34  CA  TYR A   2      -1.230   3.780 -24.208  0.00  0.00    +0.000 C 
BRANCH  34  37
ATOM     35  C   ARG A   1      -0.329   2.903 -26.305  0.00  0.00    +0.000 C 
ATOM     36  O   ARG A   1      -0.266   1.751 -25.874  0.00  0.00    +0.000 OA
ATOM     37  N   TYR A   2      -0.826   3.911 -25.600  0.00  0.00    +0.000 N 
ATOM     38  H   TYR A   2      -0.930   4.819 -26.054  0.00  0.00    +0.000 HD
BRANCH  35  39
ATOM     39  CA  ARG A   1       0.164   3.257 -27.707  0.00  0.00    +0.000 C 
BRANCH  39  40
ATOM     40  N   ARG A   1       1.570   2.886 -27.858  0.00  0.00    +0.000 N 
ATOM     41  H1  ARG A   1       2.122   3.348 -27.135  0.00  0.00    +0.000 HD
ATOM     42  H2  ARG A   1       1.665   1.875 -27.766  0.00  0.00    +0.000 HD
ATOM     43  H3  ARG A   1       1.900   3.177 -28.778  0.00  0.00    +0.000 HD
ENDBRANCH  39  40
BRANCH  39  44
ATOM     44  CB  ARG A   1      -0.684   2.576 -28.780  0.00  0.00    +0.000 C 
BRANCH  44  45
ATOM     45  CG  ARG A   1      -0.353   3.046 -30.194  0.00  0.00    +0.000 C 
BRANCH  45  46
ATOM     46  CD  ARG A   1      -1.289   2.440 -31.232  0.00  0.00    +0.000 C 
BRANCH  46  47
ATOM     47  NE  ARG A   1      -0.988   2.904 -32.587  0.00  0.00    +0.000 N 
ATOM     48  CZ  ARG A   1      -1.536   3.973 -33.162  0.00  0.00    +0.000 C 
ATOM     49  NH1 ARG A   1      -2.424   4.710 -32.506  0.00  0.00    +0.000 N 
ATOM     50  NH2 ARG A   1      -1.195   4.307 -34.399  0.00  0.00    +0.000 NA
ATOM     51  HE  ARG A   1      -0.309   2.370 -33.130  0.00  0.00    +0.000 HD
ATOM     52 HH11 ARG A   1      -2.839   5.527 -32.954  0.00  0.00    +0.000 HD
ATOM     53 HH12 ARG A   1      -2.691   4.459 -31.554  0.00  0.00    +0.000 HD
ATOM     54  HH2 ARG A   1      -0.513   3.745 -34.909  0.00  0.00    +0.000 HD
ENDBRANCH  46  47
ENDBRANCH  45  46
ENDBRANCH  44  45
ENDBRANCH  39  44
ENDBRANCH  35  39
ENDBRANCH  34  37
BRANCH  34  55
ATOM     55  CB  TYR A   2      -0.452   4.790 -23.366  0.00  0.00    +0.000 C 
BRANCH  55  56
ATOM     56  CG  TYR A   2       1.041   4.712 -23.605  0.00  0.00    +0.000 A 
ATOM     57  CD1 TYR A   2       1.671   3.486 -23.768  0.00  0.00    +0.000 A 
ATOM     58  CD2 TYR A   2       1.813   5.860 -23.689  0.00  0.00    +0.000 A 
ATOM     59  CE1 TYR A   2       3.031   3.407 -23.995  0.00  0.00    +0.000 A 
ATOM     60  CE2 TYR A   2       3.174   5.789 -23.911  0.00  0.00    +0.000 A 
ATOM     61  CZ  TYR A   2       3.776   4.561 -24.066  0.00  0.00    +0.000 A 
BRANCH  61  62
ATOM     62  OH  TYR A   2       5.133   4.491 -24.286  0.00  0.00    +0.000 OA
ATOM     63  HH  TYR A   2       5.499   5.378 -24.308  0.00  0.00    +0.000 HD
ENDBRANCH  61  62
ENDBRANCH  55  56
ENDBRANCH  34  55
ENDBRANCH   1  34
TORSDOF 21
