REMARK  Name = 6i75_ligand
REMARK  10 active torsions:
REMARK  status: ('A' for Active; 'I' for Inactive)
REMARK    1  A    between atoms: C_1  and  C_10
REMARK    2  A    between atoms: C_1  and  O_30
REMARK    3  A    between atoms: C_2  and  C_14
REMARK    4  A    between atoms: C_4  and  C_5
REMARK    5  A    between atoms: C_8  and  S_34
REMARK    6  A    between atoms: C_9  and  S_34
REMARK    7  A    between atoms: C_11  and  O_31
REMARK    8  A    between atoms: C_12  and  N_26
REMARK    9  A    between atoms: C_16  and  O_32
REMARK   10  A    between atoms: C_19  and  O_33
REMARK                            x       y       z     vdW  Elec       q    Type
REMARK                         _______ _______ _______ _____ _____    ______ ____
ROOT
ATOM      1  C   UNL     1     -19.045   9.218  -2.408  0.00  0.00    +0.000 C 
ATOM      2  C   UNL     1     -18.874   7.115  -1.506  0.00  0.00    +0.000 C 
ATOM      3  C   UNL     1     -17.322   7.230  -1.360  0.00  0.00    +0.000 C 
ATOM      4  C   UNL     1     -16.822   8.211  -2.437  0.00  0.00    +0.000 C 
ATOM      5  C   UNL     1     -17.542   9.510  -2.341  0.00  0.00    +0.000 C 
ATOM      6  O   UNL     1     -19.453   8.367  -1.391  0.00  0.00    +0.000 OA
ENDROOT
BRANCH   4   9
ATOM      7  C   UNL     1     -13.216   8.640  -1.877  0.00  0.00    +0.000 A 
ATOM      8  C   UNL     1     -14.529   8.795  -1.443  0.00  0.00    +0.000 A 
ATOM      9  N   UNL     1     -15.391   8.291  -2.381  0.00  0.00    +0.000 N 
ATOM     10  N   UNL     1     -13.363   8.039  -3.176  0.00  0.00    +0.000 NA
ATOM     11  N   UNL     1     -14.636   7.892  -3.466  0.00  0.00    +0.000 NA
BRANCH   7  13
ATOM     12  C   UNL     1     -10.521   9.221   0.758  0.00  0.00    +0.000 A 
ATOM     13  C   UNL     1     -11.930   8.977  -1.231  0.00  0.00    +0.000 A 
ATOM     14  C   UNL     1     -11.700   8.929   0.089  0.00  0.00    +0.000 A 
ATOM     15  C   UNL     1      -9.366   9.520   0.009  0.00  0.00    +0.000 A 
ATOM     16  C   UNL     1      -9.549   9.562  -1.378  0.00  0.00    +0.000 A 
ATOM     17  C   UNL     1     -10.800   9.236  -1.932  0.00  0.00    +0.000 A 
ATOM     18  F   UNL     1     -12.761   8.604   0.768  0.00  0.00    +0.000 F 
ATOM     19  F   UNL     1     -10.457   9.131   2.080  0.00  0.00    +0.000 F 
ATOM     20  F   UNL     1      -8.516   9.872  -2.164  0.00  0.00    +0.000 F 
ATOM     21  F   UNL     1     -10.974   9.281  -3.246  0.00  0.00    +0.000 F 
BRANCH  15  22
ATOM     22  O   UNL     1      -8.146   9.781   0.577  0.00  0.00    +0.000 OA
ATOM     23  H   UNL     1      -7.504   9.958  -0.114  0.00  0.00    +0.000 HD
ENDBRANCH  15  22
ENDBRANCH   7  13
ENDBRANCH   4   9
BRANCH   3  24
ATOM     24  O   UNL     1     -17.004   7.724  -0.082  0.00  0.00    +0.000 OA
ATOM     25  H   UNL     1     -16.050   7.794   0.005  0.00  0.00    +0.000 HD
ENDBRANCH   3  24
BRANCH   5  26
ATOM     26  O   UNL     1     -17.174  10.347  -3.437  0.00  0.00    +0.000 OA
ATOM     27  H   UNL     1     -16.233  10.531  -3.396  0.00  0.00    +0.000 HD
ENDBRANCH   5  26
BRANCH   2  28
ATOM     28  C   UNL     1     -19.480   6.267  -0.469  0.00  0.00    +0.000 C 
BRANCH  28  29
ATOM     29  O   UNL     1     -20.825   6.025  -0.660  0.00  0.00    +0.000 OA
ATOM     30  H   UNL     1     -21.153   5.468   0.050  0.00  0.00    +0.000 HD
ENDBRANCH  28  29
ENDBRANCH   2  28
BRANCH   1  31
ATOM     31  S   UNL     1     -20.090  10.810  -2.374  0.00  0.00    +0.000 S 
BRANCH  31  36
ATOM     32  C   UNL     1     -25.208   9.657  -5.607  0.00  0.00    +0.000 C 
ATOM     33  C   UNL     1     -23.945   9.912  -4.784  0.00  0.00    +0.000 A 
ATOM     34  C   UNL     1     -23.216   8.873  -4.184  0.00  0.00    +0.000 A 
ATOM     35  C   UNL     1     -22.061   9.157  -3.412  0.00  0.00    +0.000 A 
ATOM     36  C   UNL     1     -21.584  10.480  -3.296  0.00  0.00    +0.000 A 
ATOM     37  C   UNL     1     -22.288  11.507  -3.872  0.00  0.00    +0.000 A 
ATOM     38  C   UNL     1     -23.435  11.219  -4.604  0.00  0.00    +0.000 A 
ENDBRANCH  31  36
ENDBRANCH   1  31
TORSDOF 9
