REMARK  Name = 6oi8_ligand
REMARK  3 active torsions:
REMARK  status: ('A' for Active; 'I' for Inactive)
REMARK    1  A    between atoms: C_3  and  N_4
REMARK    2  A    between atoms: C_18  and  C_19
REMARK    3  A    between atoms: C_25  and  C_26
REMARK                            x       y       z     vdW  Elec       q    Type
REMARK                         _______ _______ _______ _____ _____    ______ ____
ROOT
ATOM      1  C   UNL     1      34.449 101.302   0.840  0.00  0.00    +0.000 C 
ATOM      2  C   UNL     1      35.613 100.747   0.033  0.00  0.00    +0.000 C 
ATOM      3  C   UNL     1      36.890 101.578  -0.128  0.00  0.00    +0.000 C 
ATOM      4  C   UNL     1      35.767 101.650  -1.172  0.00  0.00    +0.000 C 
ATOM      5  C   UNL     1      34.792 102.798  -1.089  0.00  0.00    +0.000 C 
ATOM      6  N   UNL     1      34.146 102.678   0.303  0.00  0.00    +0.000 N 
ATOM      7  C   UNL     1      33.358 103.474   1.067  0.00  0.00    +0.000 A 
ATOM      8  N   UNL     1      32.657 102.878   2.061  0.00  0.00    +0.000 NA
ATOM      9  C   UNL     1      31.841 103.546   2.900  0.00  0.00    +0.000 A 
ATOM     10  N   UNL     1      31.172 102.880   3.865  0.00  0.00    +0.000 NA
ATOM     11  C   UNL     1      30.348 103.516   4.724  0.00  0.00    +0.000 A 
ATOM     12  N   UNL     1      29.720 102.809   5.665  0.00  0.00    +0.000 N 
ATOM     13  N   UNL     1      30.165 104.854   4.634  0.00  0.00    +0.000 NA
ATOM     14  C   UNL     1      30.840 105.592   3.638  0.00  0.00    +0.000 A 
ATOM     15  C   UNL     1      31.688 104.924   2.765  0.00  0.00    +0.000 A 
ATOM     16  C   UNL     1      32.383 105.593   1.762  0.00  0.00    +0.000 A 
ATOM     17  C   UNL     1      33.219 104.869   0.905  0.00  0.00    +0.000 A 
ATOM     18  H   UNL     1      29.866 101.801   5.728  0.00  0.00    +0.000 HD
ATOM     19  H   UNL     1      29.094 103.276   6.321  0.00  0.00    +0.000 HD
ENDROOT
BRANCH  17  20
ATOM     20  C   UNL     1      33.919 105.542  -0.091  0.00  0.00    +0.000 A 
ATOM     21  C   UNL     1      35.271 105.828   0.135  0.00  0.00    +0.000 A 
ATOM     22 CL   UNL     1      36.036 105.358   1.644  0.00  0.00    +0.000 Cl
ATOM     23  C   UNL     1      36.015 106.488  -0.843  0.00  0.00    +0.000 A 
ATOM     24  C   UNL     1      35.411 106.858  -2.038  0.00  0.00    +0.000 A 
ATOM     25  C   UNL     1      34.065 106.573  -2.265  0.00  0.00    +0.000 A 
ATOM     26  C   UNL     1      33.307 105.909  -1.302  0.00  0.00    +0.000 A 
BRANCH  26  27
ATOM     27  C   UNL     1      31.956 105.658  -1.567  0.00  0.00    +0.000 A 
ATOM     28  C   UNL     1      31.506 104.420  -2.015  0.00  0.00    +0.000 A 
ATOM     29  C   UNL     1      30.158 104.191  -2.279  0.00  0.00    +0.000 A 
ATOM     30  C   UNL     1      29.232 105.206  -2.097  0.00  0.00    +0.000 A 
ATOM     31  N   UNL     1      29.667 106.454  -1.643  0.00  0.00    +0.000 NA
ATOM     32  C   UNL     1      31.028 106.677  -1.383  0.00  0.00    +0.000 A 
ENDBRANCH  26  27
ENDBRANCH  17  20
BRANCH   3  33
ATOM     33  N   UNL     1      38.113 100.844  -0.481  0.00  0.00    +0.000 N 
ATOM     34  H   UNL     1      38.767 100.879   0.301  0.00  0.00    +0.000 HD
ATOM     35  H   UNL     1      37.878  99.873  -0.686  0.00  0.00    +0.000 HD
ATOM     36  H   UNL     1      38.540 101.272  -1.302  0.00  0.00    +0.000 HD
ENDBRANCH   3  33
TORSDOF 3
