REMARK  Name = 6g5u_ligand
REMARK  7 active torsions:
REMARK  status: ('A' for Active; 'I' for Inactive)
REMARK    1  A    between atoms: C_2  and  C_6
REMARK    2  A    between atoms: C_3  and  S_16
REMARK    3  A    between atoms: N_7  and  C_8
REMARK    4  A    between atoms: C_8  and  C_9
REMARK    5  A    between atoms: C_9  and  C_10
REMARK    6  A    between atoms: C_10  and  C_11
REMARK    7  A    between atoms: S_16  and  N_19
REMARK                            x       y       z     vdW  Elec       q    Type
REMARK                         _______ _______ _______ _____ _____    ______ ____
ROOT
ATOM      1  C   UNL     1      20.471   1.268 -16.398  0.00  0.00    +0.000 A 
ATOM      2  C   UNL     1      19.942   0.141 -17.021  0.00  0.00    +0.000 A 
ATOM      3  C   UNL     1      20.746   2.398 -17.081  0.00  0.00    +0.000 A 
ATOM      4  C   UNL     1      20.077   1.325 -19.116  0.00  0.00    +0.000 A 
ATOM      5  C   UNL     1      19.785   0.176 -18.387  0.00  0.00    +0.000 A 
ATOM      6 CL   UNL     1      19.152  -1.188 -19.318  0.00  0.00    +0.000 Cl
ATOM      7  C   UNL     1      20.573   2.434 -18.476  0.00  0.00    +0.000 A 
ATOM      8 CL   UNL     1      20.919   3.879 -19.374  0.00  0.00    +0.000 Cl
ENDROOT
BRANCH   2  10
ATOM      9  O   UNL     1      18.875  -0.817 -15.155  0.00  0.00    +0.000 OA
ATOM     10  C   UNL     1      19.599  -1.008 -16.157  0.00  0.00    +0.000 C 
ATOM     11  N   UNL     1      19.998  -2.222 -16.484  0.00  0.00    +0.000 N 
ATOM     12  H   UNL     1      20.528  -2.380 -17.341  0.00  0.00    +0.000 HD
BRANCH  11  13
ATOM     13  C   UNL     1      19.665  -3.348 -15.590  0.00  0.00    +0.000 C 
BRANCH  13  14
ATOM     14  C   UNL     1      20.063  -4.658 -16.220  0.00  0.00    +0.000 C 
BRANCH  14  15
ATOM     15  C   UNL     1      18.877  -5.215 -16.992  0.00  0.00    +0.000 C 
ATOM     16  C   UNL     1      17.859  -5.852 -16.050  0.00  0.00    +0.000 C 
ENDBRANCH  14  15
ENDBRANCH  13  14
ENDBRANCH  11  13
ENDBRANCH   2  10
BRANCH   3  17
ATOM     17  S   UNL     1      21.373   3.807 -16.118  0.00  0.00    +0.000 S 
ATOM     18  O   UNL     1      22.582   4.275 -16.826  0.00  0.00    +0.000 OA
ATOM     19  O   UNL     1      20.325   4.833 -16.078  0.00  0.00    +0.000 OA
BRANCH  17  20
ATOM     20  N   UNL     1      21.798   3.520 -14.543  0.00  0.00    +0.000 NA
ATOM     21  H   UNL     1      22.758   3.677 -14.237  0.00  0.00    +0.000 HD
ATOM     22  H   UNL     1      21.099   3.186 -13.879  0.00  0.00    +0.000 HD
ENDBRANCH  17  20
ENDBRANCH   3  17
TORSDOF 6
