REMARK  Name = 6p8x_ligand
REMARK  8 active torsions:
REMARK  status: ('A' for Active; 'I' for Inactive)
REMARK    1  A    between atoms: C_1  and  C_2
REMARK    2  A    between atoms: C_2  and  C_3
REMARK    3  A    between atoms: C_7  and  N_9
REMARK    4  A    between atoms: C_10  and  C_12
REMARK    5  A    between atoms: C_12  and  O_13
REMARK    6  A    between atoms: O_13  and  C_14
REMARK    7  A    between atoms: C_20  and  C_21
REMARK    8  A    between atoms: C_26  and  C_28
REMARK                            x       y       z     vdW  Elec       q    Type
REMARK                         _______ _______ _______ _____ _____    ______ ____
ROOT
ATOM      1  C   UNL     1      -2.277  77.696 -35.766  0.00  0.00    +0.000 A 
ATOM      2  C   UNL     1      -2.966  76.519 -35.516  0.00  0.00    +0.000 A 
ATOM      3  C   UNL     1      -4.240  76.341 -36.018  0.00  0.00    +0.000 A 
ATOM      4  C   UNL     1      -4.823  77.352 -36.767  0.00  0.00    +0.000 A 
ATOM      5 BR   UNL     1      -6.613  77.148 -37.477  0.00  0.00    +0.000 Br
ATOM      6  C   UNL     1      -4.134  78.527 -36.999  0.00  0.00    +0.000 A 
ATOM      7  C   UNL     1      -2.862  78.691 -36.517  0.00  0.00    +0.000 A 
ENDROOT
BRANCH   7   8
ATOM      8  C   UNL     1      -2.115  79.992 -36.764  0.00  0.00    +0.000 C 
ATOM      9  O   UNL     1      -1.621  80.225 -37.800  0.00  0.00    +0.000 OA
ATOM     10  N   UNL     1      -2.044  80.929 -35.671  0.00  0.00    +0.000 N 
ATOM     11  C   UNL     1      -1.403  82.229 -35.634  0.00  0.00    +0.000 C 
ATOM     12  C   UNL     1      -2.073  82.940 -34.437  0.00  0.00    +0.000 C 
ATOM     13  C   UNL     1      -2.503  81.997 -33.610  0.00  0.00    +0.000 C 
ATOM     14  C   UNL     1      -2.630  80.711 -34.358  0.00  0.00    +0.000 C 
BRANCH  13  15
ATOM     15  C   UNL     1      -2.997  82.218 -32.184  0.00  0.00    +0.000 A 
ATOM     16  C   UNL     1      -3.567  81.176 -31.484  0.00  0.00    +0.000 A 
ATOM     17  C   UNL     1      -4.010  81.373 -30.195  0.00  0.00    +0.000 A 
ATOM     18  C   UNL     1      -3.883  82.604 -29.603  0.00  0.00    +0.000 A 
ATOM     19  C   UNL     1      -3.316  83.645 -30.302  0.00  0.00    +0.000 A 
ATOM     20  C   UNL     1      -2.875  83.449 -31.592  0.00  0.00    +0.000 A 
ENDBRANCH  13  15
ENDBRANCH   7   8
BRANCH   1  21
ATOM     21  O   UNL     1      -0.995  77.885 -35.260  0.00  0.00    +0.000 OA
BRANCH  21  22
ATOM     22  C   UNL     1      -0.479  76.750 -34.645  0.00  0.00    +0.000 C 
BRANCH  22  24
ATOM     23  N   UNL     1      -0.040  75.883 -32.355  0.00  0.00    +0.000 N 
ATOM     24  C   UNL     1      -0.888  76.667 -33.186  0.00  0.00    +0.000 C 
ATOM     25  O   UNL     1      -1.842  77.178 -32.746  0.00  0.00    +0.000 OA
ATOM     26  H   UNL     1       0.767  75.432 -32.786  0.00  0.00    +0.000 HD
BRANCH  23  31
ATOM     27  C   UNL     1       0.537  72.470 -29.696  0.00  0.00    +0.000 C 
ATOM     28  O   UNL     1      -0.342  71.751 -29.453  0.00  0.00    +0.000 OA
ATOM     29  N   UNL     1       0.197  73.781 -30.171  0.00  0.00    +0.000 N 
ATOM     30  C   UNL     1      -1.051  74.524 -30.483  0.00  0.00    +0.000 C 
ATOM     31  C   UNL     1      -0.249  75.687 -30.946  0.00  0.00    +0.000 C 
ATOM     32  C   UNL     1       0.966  74.980 -30.529  0.00  0.00    +0.000 C 
BRANCH  27  34
ATOM     33  C   UNL     1       2.315  72.053 -27.975  0.00  0.00    +0.000 C 
ATOM     34  C   UNL     1       2.003  72.042 -29.535  0.00  0.00    +0.000 C 
ENDBRANCH  27  34
ENDBRANCH  23  31
ENDBRANCH  22  24
ENDBRANCH  21  22
ENDBRANCH   1  21
TORSDOF 7
