REMARK  Name = 6oin_ligand
REMARK  4 active torsions:
REMARK  status: ('A' for Active; 'I' for Inactive)
REMARK    1  A    between atoms: C_1  and  C_2
REMARK    2  A    between atoms: N_12  and  N_13
REMARK    3  A    between atoms: N_13  and  S_14
REMARK    4  A    between atoms: S_14  and  C_17
REMARK                            x       y       z     vdW  Elec       q    Type
REMARK                         _______ _______ _______ _____ _____    ______ ____
ROOT
ATOM      1  N   UNL     1      -2.999   9.441 -18.322  0.00  0.00    +0.000 NA
ATOM      2  H   UNL     1      -2.256   9.560 -17.633  0.00  0.00    +0.000 HD
ENDROOT
BRANCH   1   5
ATOM      3  C   UNL     1      -5.113  10.622 -17.855  0.00  0.00    +0.000 C 
ATOM      4  O   UNL     1      -5.399   9.830 -16.918  0.00  0.00    +0.000 OA
ATOM      5  N   UNL     1      -3.937  10.466 -18.615  0.00  0.00    +0.000 N 
ATOM      6  H   UNL     1      -3.756  11.102 -19.391  0.00  0.00    +0.000 HD
BRANCH   3   7
ATOM      7  C   UNL     1      -5.891  11.756 -18.265  0.00  0.00    +0.000 A 
ATOM      8  C   UNL     1      -6.868  13.232 -20.114  0.00  0.00    +0.000 A 
ATOM      9  C   UNL     1      -6.124  12.140 -19.665  0.00  0.00    +0.000 A 
ATOM     10  C   UNL     1      -6.490  12.565 -17.272  0.00  0.00    +0.000 A 
ATOM     11  C   UNL     1      -7.242  13.670 -17.729  0.00  0.00    +0.000 A 
ATOM     12  C   UNL     1      -7.437  14.024 -19.119  0.00  0.00    +0.000 A 
ATOM     13  F   UNL     1      -5.608  11.375 -20.694  0.00  0.00    +0.000 F 
ENDBRANCH   3   7
ENDBRANCH   1   5
BRANCH   1  14
ATOM     14  S   UNL     1      -3.216   7.918 -19.253  0.00  0.00    +0.000 S 
ATOM     15  O   UNL     1      -4.592   7.587 -19.621  0.00  0.00    +0.000 OA
ATOM     16  O   UNL     1      -2.490   6.844 -18.548  0.00  0.00    +0.000 OA
BRANCH  14  19
ATOM     17  C   UNL     1       0.111   6.499 -23.014  0.00  0.00    +0.000 A 
ATOM     18  C   UNL     1       0.669   6.707 -24.280  0.00  0.00    +0.000 A 
ATOM     19  C   UNL     1      -2.427   8.090 -20.897  0.00  0.00    +0.000 A 
ATOM     20  C   UNL     1      -1.404   7.189 -21.276  0.00  0.00    +0.000 A 
ATOM     21  C   UNL     1      -0.865   7.402 -22.570  0.00  0.00    +0.000 A 
ATOM     22  C   UNL     1       0.166   7.705 -25.098  0.00  0.00    +0.000 A 
ATOM     23  C   UNL     1      -0.880   8.586 -24.710  0.00  0.00    +0.000 A 
ATOM     24  C   UNL     1      -1.386   8.422 -23.402  0.00  0.00    +0.000 A 
ATOM     25  C   UNL     1      -2.425   9.290 -22.977  0.00  0.00    +0.000 A 
ATOM     26  C   UNL     1      -2.909   9.111 -21.705  0.00  0.00    +0.000 A 
ENDBRANCH  14  19
ENDBRANCH   1  14
TORSDOF 4
