REMARK  Name = 5zk9_ligand
REMARK  62 active torsions:
REMARK  status: ('A' for Active; 'I' for Inactive)
REMARK    1  A    between atoms: C_1  and  C_3
REMARK    2  A    between atoms: N_4  and  CA_5
REMARK    3  A    between atoms: CA_5  and  C_6
REMARK    4  A    between atoms: CA_5  and  CB_8
REMARK    5  A    between atoms: CB_8  and  CG_9
REMARK    6  A    between atoms: CG_9  and  CD_10
REMARK    7  A    between atoms: CD_10  and  NE_11
REMARK    8  A    between atoms: N_15  and  CA_16
REMARK    9  A    between atoms: CA_16  and  C_17
REMARK   10  A    between atoms: CA_16  and  CB_19
REMARK   11  A    between atoms: CB_19  and  CG1_20
REMARK   12  A    between atoms: CB_19  and  CG2_21
REMARK   13  A    between atoms: CG1_20  and  CD1_22
REMARK   14  A    between atoms: N_23  and  CA_24
REMARK   15  A    between atoms: CA_24  and  C_25
REMARK   16  A    between atoms: CA_24  and  CB_27
REMARK   17  A    between atoms: CB_27  and  CG1_28
REMARK   18  A    between atoms: CB_27  and  CG2_29
REMARK   19  A    between atoms: CG1_28  and  CD1_30
REMARK   20  A    between atoms: N_31  and  CA_32
REMARK   21  A    between atoms: CA_32  and  C_33
REMARK   22  A    between atoms: CA_32  and  CB_35
REMARK   23  A    between atoms: CB_35  and  CG_36
REMARK   24  A    between atoms: CZ_41  and  OH_42
REMARK   25  A    between atoms: N_43  and  C_44
REMARK   26  A    between atoms: C_44  and  C_45
REMARK   27  A    between atoms: C_44  and  C_47
REMARK   28  A    between atoms: C_47  and  O_48
REMARK   29  A    between atoms: N_49  and  C_50
REMARK   30  A    between atoms: C_50  and  C_51
REMARK   31  A    between atoms: C_50  and  C_53
REMARK   32  A    between atoms: C_53  and  C_54
REMARK   33  A    between atoms: C_54  and  C_55
REMARK   34  A    between atoms: C_55  and  N_56
REMARK   35  A    between atoms: N_61  and  C_63
REMARK   36  A    between atoms: C_63  and  C_68
REMARK   37  A    between atoms: C_70  and  C_73
REMARK   38  A    between atoms: C_73  and  C_74
REMARK   39  A    between atoms: C_74  and  C_75
REMARK   40  A    between atoms: C_79  and  C_82
REMARK   41  A    between atoms: C_82  and  C_83
REMARK   42  A    between atoms: C_83  and  C_84
REMARK   43  A    between atoms: C_83  and  C_85
REMARK   44  A    between atoms: C_87  and  C_90
REMARK   45  A    between atoms: C_90  and  C_91
REMARK   46  A    between atoms: C_91  and  C_92
REMARK   47  A    between atoms: C_91  and  C_93
REMARK   48  A    between atoms: C_94  and  C_97
REMARK   49  A    between atoms: C_97  and  C_102
REMARK   50  A    between atoms: N_103  and  C_104
REMARK   51  A    between atoms: C_104  and  C_105
REMARK   52  A    between atoms: C_104  and  C_107
REMARK   53  A    between atoms: C_107  and  C_108
REMARK   54  A    between atoms: C_108  and  C_109
REMARK   55  A    between atoms: C_108  and  C_110
REMARK   56  A    between atoms: N_111  and  C_112
REMARK   57  A    between atoms: C_112  and  C_113
REMARK   58  A    between atoms: C_112  and  C_115
REMARK   59  A    between atoms: C_115  and  C_116
REMARK   60  A    between atoms: C_116  and  C_117
REMARK   61  A    between atoms: C_117  and  C_118
REMARK   62  A    between atoms: C_118  and  N_119
REMARK                            x       y       z     vdW  Elec       q    Type
REMARK                         _______ _______ _______ _____ _____    ______ ____
ROOT
ATOM      1  C   UNK A   5     -57.216 -39.727 101.352  0.00  0.00    +0.000 C 
ATOM      2  O   UNK A   5     -55.990 -39.616 101.438  0.00  0.00    +0.000 OA
ATOM      3  N   UNK A   5     -58.010 -39.710 102.453  0.00  0.00    +0.000 N 
ATOM      4  H   UNK A   5     -59.015 -39.803 102.303  0.00  0.00    +0.000 HD
ENDROOT
BRANCH   3   7
ATOM      5  C   UNK A   5     -56.544 -40.667 104.144  0.00  0.00    +0.000 C 
ATOM      6  O   UNK A   5     -55.461 -40.372 104.682  0.00  0.00    +0.000 OA
ATOM      7  C   UNK A   5     -57.554 -39.571 103.832  0.00  0.00    +0.000 C 
ATOM      8  C   UNK A   5     -58.799 -39.748 104.706  0.00  0.00    +0.000 C 
ATOM      9  C   UNK A   5     -58.263 -41.081 106.843  0.00  0.00    +0.000 C 
ATOM     10  C   UNK A   5     -57.717 -40.962 108.249  0.00  0.00    +0.000 C 
ATOM     11  C   UNK A   5     -58.523 -39.714 106.218  0.00  0.00    +0.000 C 
ATOM     12  C   UNK A   5     -57.004 -38.146 103.995  0.00  0.00    +0.000 C 
ATOM     13  N   UNK A   5     -56.862 -41.865 103.839  0.00  0.00    +0.000 N 
ATOM     14  C   UNK A   5     -55.980 -43.015 104.105  0.00  0.00    +0.000 C 
ATOM     15  C   UNK A   5     -54.611 -42.852 103.458  0.00  0.00    +0.000 C 
ATOM     16  O   UNK A   5     -53.581 -43.118 104.099  0.00  0.00    +0.000 OA
ATOM     17  N   UNK A   5     -54.611 -42.431 102.192  0.00  0.00    +0.000 N 
ATOM     18  C   UNK A   5     -53.356 -42.223 101.469  0.00  0.00    +0.000 C 
ATOM     19  C   UNK A   5     -52.527 -41.119 102.067  0.00  0.00    +0.000 C 
ATOM     20  O   UNK A   5     -51.334 -41.302 102.287  0.00  0.00    +0.000 OA
ATOM     21  N   UNK A   5     -53.154 -39.994 102.422  0.00  0.00    +0.000 N 
ATOM     22  C   UNK A   5     -52.394 -38.897 103.026  0.00  0.00    +0.000 C 
ATOM     23  C   UNK A   5     -51.839 -39.218 104.422  0.00  0.00    +0.000 C 
ATOM     24  O   UNK A   5     -50.703 -38.816 104.687  0.00  0.00    +0.000 OA
ATOM     25  N   UNK A   5     -52.593 -39.927 105.311  0.00  0.00    +0.000 N 
ATOM     26  C   UNK A   5     -52.148 -40.348 106.641  0.00  0.00    +0.000 C 
ATOM     27  C   UNK A   5     -53.181 -41.303 107.235  0.00  0.00    +0.000 C 
ATOM     28  C   UNK A   5     -55.365 -41.751 108.389  0.00  0.00    +0.000 C 
ATOM     29  C   UNK A   5     -56.627 -41.134 109.022  0.00  0.00    +0.000 C 
ATOM     30  C   UNK A   5     -54.423 -40.664 107.869  0.00  0.00    +0.000 C 
ATOM     31  C   UNK A   5     -51.885 -39.136 107.561  0.00  0.00    +0.000 C 
ATOM     32  H   UNK A   5     -57.764 -42.033 103.393  0.00  0.00    +0.000 HD
ATOM     33  H   UNK A   5     -55.498 -42.252 101.722  0.00  0.00    +0.000 HD
ATOM     34  H   UNK A   5     -54.159 -39.899 102.273  0.00  0.00    +0.000 HD
ATOM     35  H   UNK A   5     -53.539 -40.183 105.028  0.00  0.00    +0.000 HD
BRANCH  26  36
ATOM     36  C   UNK A   5     -50.886 -41.179 106.480  0.00  0.00    +0.000 C 
ATOM     37  O   UNK A   5     -49.985 -41.068 107.341  0.00  0.00    +0.000 OA
ATOM     38  N   UNK A   5     -50.792 -41.966 105.482  0.00  0.00    +0.000 N 
ATOM     39  H   UNK A   5     -51.549 -41.999 104.799  0.00  0.00    +0.000 HD
BRANCH  38  40
ATOM     40  C   UNK A   5     -49.615 -42.828 105.295  0.00  0.00    +0.000 C 
BRANCH  40  41
ATOM     41  C   UNK A   5     -48.383 -42.170 104.704  0.00  0.00    +0.000 C 
ATOM     42  O   UNK A   5     -47.358 -42.819 104.586  0.00  0.00    +0.000 OA
ATOM     43  N   UNK A   5     -48.463 -40.893 104.347  0.00  0.00    +0.000 N 
ATOM     44  H   UNK A   5     -49.377 -40.441 104.307  0.00  0.00    +0.000 HD
BRANCH  43  45
ATOM     45  C   UNK A   5     -47.285 -40.134 104.015  0.00  0.00    +0.000 C 
BRANCH  45  46
ATOM     46  C   UNK A   5     -46.426 -39.973 105.295  0.00  0.00    +0.000 C 
ATOM     47  O   UNK A   5     -45.237 -39.829 105.220  0.00  0.00    +0.000 OA
ATOM     48  N   UNK A   5     -47.031 -40.053 106.580  0.00  0.00    +0.000 N 
ATOM     49  H   UNK A   5     -46.456 -39.988 107.420  0.00  0.00    +0.000 HD
ATOM     50  H   UNK A   5     -48.040 -40.175 106.662  0.00  0.00    +0.000 HD
ENDBRANCH  45  46
BRANCH  45  51
ATOM     51  C   UNK A   5     -47.683 -38.783 103.424  0.00  0.00    +0.000 C 
BRANCH  51  52
ATOM     52  C   UNK A   5     -46.506 -37.971 102.904  0.00  0.00    +0.000 C 
BRANCH  52  53
ATOM     53  C   UNK A   5     -46.955 -36.693 102.204  0.00  0.00    +0.000 C 
BRANCH  53  54
ATOM     54  C   UNK A   5     -45.764 -35.906 101.668  0.00  0.00    +0.000 C 
BRANCH  54  55
ATOM     55  N   UNK A   5     -45.016 -35.193 102.748  0.00  0.00    +0.000 N 
ATOM     56  H   UNK A   5     -44.233 -34.684 102.338  0.00  0.00    +0.000 HD
ATOM     57  H   UNK A   5     -45.641 -34.537 103.217  0.00  0.00    +0.000 HD
ATOM     58  H   UNK A   5     -44.666 -35.873 103.423  0.00  0.00    +0.000 HD
ENDBRANCH  54  55
ENDBRANCH  53  54
ENDBRANCH  52  53
ENDBRANCH  51  52
ENDBRANCH  45  51
ENDBRANCH  43  45
ENDBRANCH  40  41
BRANCH  40  59
ATOM     59  C   UNK A   5     -50.054 -44.022 104.434  0.00  0.00    +0.000 C 
BRANCH  59  60
ATOM     60  C   UNK A   5     -50.992 -45.022 105.124  0.00  0.00    +0.000 C 
ATOM     61  C   UNK A   5     -51.617 -45.964 104.111  0.00  0.00    +0.000 C 
ATOM     62  C   UNK A   5     -50.285 -45.817 106.217  0.00  0.00    +0.000 C 
ENDBRANCH  59  60
ENDBRANCH  40  59
ENDBRANCH  38  40
ENDBRANCH  26  36
BRANCH  22  63
ATOM     63  C   UNK A   5     -53.237 -37.619 103.063  0.00  0.00    +0.000 C 
BRANCH  63  64
ATOM     64  C   UNK A   5     -53.625 -37.043 101.701  0.00  0.00    +0.000 C 
ATOM     65  C   UNK A   5     -54.509 -35.823 101.870  0.00  0.00    +0.000 C 
ATOM     66  C   UNK A   5     -52.408 -36.707 100.867  0.00  0.00    +0.000 C 
ENDBRANCH  63  64
ENDBRANCH  22  63
BRANCH  18  67
ATOM     67  C   UNK A   5     -53.600 -41.972  99.984  0.00  0.00    +0.000 C 
BRANCH  67  68
ATOM     68  C   UNK A   5     -54.218 -43.176  99.273  0.00  0.00    +0.000 C 
ATOM     69  C   UNK A   5     -54.689 -42.787  97.876  0.00  0.00    +0.000 C 
ATOM     70  C   UNK A   5     -53.235 -44.352  99.217  0.00  0.00    +0.000 C 
ENDBRANCH  67  68
ENDBRANCH  18  67
BRANCH  14  71
ATOM     71  C   UNK A   5     -56.633 -44.276 103.550  0.00  0.00    +0.000 C 
BRANCH  71  72
ATOM     72  C   UNK A   5     -57.652 -44.934 104.458  0.00  0.00    +0.000 C 
BRANCH  72  73
ATOM     73  C   UNK A   5     -58.223 -46.193 103.818  0.00  0.00    +0.000 C 
ATOM     74  O   UNK A   5     -58.980 -46.124 102.834  0.00  0.00    +0.000 OA
ATOM     75  N   UNK A   5     -57.841 -47.346 104.349  0.00  0.00    +0.000 N 
ATOM     76  H   UNK A   5     -58.170 -48.225 103.950  0.00  0.00    +0.000 HD
ATOM     77  H   UNK A   5     -57.218 -47.354 105.157  0.00  0.00    +0.000 HD
ENDBRANCH  72  73
ENDBRANCH  71  72
ENDBRANCH  14  71
ENDBRANCH   3   7
BRANCH   1  78
ATOM     78  C   UNK A   5     -57.870 -39.889  99.944  0.00  0.00    +0.000 C 
BRANCH  78  81
ATOM     79  C   UNK A   5     -58.501 -42.210 100.294  0.00  0.00    +0.000 C 
ATOM     80  O   UNK A   5     -57.368 -42.547 100.657  0.00  0.00    +0.000 OA
ATOM     81  N   UNK A   5     -58.800 -40.986  99.867  0.00  0.00    +0.000 N 
ATOM     82  H   UNK A   5     -59.724 -40.818  99.469  0.00  0.00    +0.000 HD
BRANCH  79  83
ATOM     83  C   UNK A   5     -59.661 -43.184 100.354  0.00  0.00    +0.000 C 
BRANCH  83  86
ATOM     84  C   TYR A   4     -58.522 -45.088  99.380  0.00  0.00    +0.000 C 
ATOM     85  O   TYR A   4     -58.460 -44.573  98.251  0.00  0.00    +0.000 OA
ATOM     86  N   UNK A   5     -59.144 -44.540 100.417  0.00  0.00    +0.000 N 
ATOM     87  H   UNK A   5     -59.261 -45.081 101.274  0.00  0.00    +0.000 HD
BRANCH  84  88
ATOM     88  CA  TYR A   4     -57.813 -46.397  99.658  0.00  0.00    +0.000 C 
BRANCH  88  91
ATOM     89  C   ILE A   3     -58.661 -48.571  98.903  0.00  0.00    +0.000 C 
ATOM     90  O   ILE A   3     -58.682 -49.050 100.038  0.00  0.00    +0.000 OA
ATOM     91  N   TYR A   4     -58.169 -47.362  98.624  0.00  0.00    +0.000 N 
ATOM     92  H   TYR A   4     -58.036 -47.102  97.647  0.00  0.00    +0.000 HD
BRANCH  89  93
ATOM     93  CA  ILE A   3     -59.196 -49.377  97.728  0.00  0.00    +0.000 C 
BRANCH  93  96
ATOM     94  C   ILE A   2     -58.043 -51.449  97.118  0.00  0.00    +0.000 C 
ATOM     95  O   ILE A   2     -57.560 -50.975  96.088  0.00  0.00    +0.000 OA
ATOM     96  N   ILE A   3     -58.819 -50.764  97.952  0.00  0.00    +0.000 N 
ATOM     97  H   ILE A   3     -59.166 -51.233  98.788  0.00  0.00    +0.000 HD
BRANCH  94  98
ATOM     98  CA  ILE A   2     -57.808 -52.914  97.473  0.00  0.00    +0.000 C 
BRANCH  98 101
ATOM     99  C   ARG A   1     -59.687 -54.180  96.571  0.00  0.00    +0.000 C 
ATOM    100  O   ARG A   1     -60.377 -53.982  97.558  0.00  0.00    +0.000 OA
ATOM    101  N   ILE A   2     -58.445 -53.722  96.442  0.00  0.00    +0.000 N 
ATOM    102  H   ILE A   2     -57.922 -53.944  95.595  0.00  0.00    +0.000 HD
BRANCH  99 103
ATOM    103  CA  ARG A   1     -60.216 -55.001  95.411  0.00  0.00    +0.000 C 
BRANCH 103 107
ATOM    104  C   UNK A   0     -60.900 -57.096  96.525  0.00  0.00    +0.000 C 
ATOM    105  O   UNK A   0     -61.820 -57.847  96.816  0.00  0.00    +0.000 OA
ATOM    106  C   UNK A   0     -59.484 -57.487  96.933  0.00  0.00    +0.000 C 
ATOM    107  N   ARG A   1     -61.191 -55.967  95.861  0.00  0.00    +0.000 N 
ATOM    108  H   ARG A   1     -62.173 -55.777  95.659  0.00  0.00    +0.000 HD
ENDBRANCH 103 107
BRANCH 103 109
ATOM    109  CB  ARG A   1     -60.816 -54.099  94.319  0.00  0.00    +0.000 C 
BRANCH 109 110
ATOM    110  CG  ARG A   1     -61.226 -54.858  93.056  0.00  0.00    +0.000 C 
BRANCH 110 111
ATOM    111  CD  ARG A   1     -60.077 -55.688  92.499  0.00  0.00    +0.000 C 
BRANCH 111 112
ATOM    112  NE  ARG A   1     -60.346 -56.348  91.220  0.00  0.00    +0.000 N 
ATOM    113  CZ  ARG A   1     -60.285 -55.769  90.021  0.00  0.00    +0.000 C 
ATOM    114  NH1 ARG A   1     -60.532 -56.501  88.931  0.00  0.00    +0.000 NA
ATOM    115  NH2 ARG A   1     -59.992 -54.470  89.896  0.00  0.00    +0.000 N 
ATOM    116  HE  ARG A   1     -60.602 -57.335  91.249  0.00  0.00    +0.000 HD
ATOM    117  HH1 ARG A   1     -60.764 -57.490  89.023  0.00  0.00    +0.000 HD
ATOM    118 HH21 ARG A   1     -59.958 -54.042  88.971  0.00  0.00    +0.000 HD
ATOM    119 HH22 ARG A   1     -59.803 -53.908  90.726  0.00  0.00    +0.000 HD
ENDBRANCH 111 112
ENDBRANCH 110 111
ENDBRANCH 109 110
ENDBRANCH 103 109
ENDBRANCH  99 103
ENDBRANCH  98 101
BRANCH  98 120
ATOM    120  CB  ILE A   2     -56.299 -53.194  97.592  0.00  0.00    +0.000 C 
ATOM    121  CG2 ILE A   2     -55.709 -52.383  98.751  0.00  0.00    +0.000 C 
BRANCH 120 122
ATOM    122  CG1 ILE A   2     -56.042 -54.695  97.797  0.00  0.00    +0.000 C 
ATOM    123  CD1 ILE A   2     -54.591 -55.090  97.656  0.00  0.00    +0.000 C 
ENDBRANCH 120 122
ENDBRANCH  98 120
ENDBRANCH  94  98
ENDBRANCH  93  96
BRANCH  93 124
ATOM    124  CB  ILE A   3     -60.741 -49.234  97.606  0.00  0.00    +0.000 C 
ATOM    125  CG2 ILE A   3     -61.195 -47.794  97.817  0.00  0.00    +0.000 C 
BRANCH 124 126
ATOM    126  CG1 ILE A   3     -61.234 -49.619  96.208  0.00  0.00    +0.000 C 
ATOM    127  CD1 ILE A   3     -60.902 -50.997  95.736  0.00  0.00    +0.000 C 
ENDBRANCH 124 126
ENDBRANCH  93 124
ENDBRANCH  89  93
ENDBRANCH  88  91
BRANCH  88 128
ATOM    128  CB  TYR A   4     -56.313 -46.124  99.708  0.00  0.00    +0.000 C 
BRANCH 128 129
ATOM    129  CG  TYR A   4     -55.503 -47.340 100.048  0.00  0.00    +0.000 A 
ATOM    130  CD1 TYR A   4     -55.360 -47.760 101.370  0.00  0.00    +0.000 A 
ATOM    131  CD2 TYR A   4     -54.918 -48.107  99.048  0.00  0.00    +0.000 A 
ATOM    132  CE1 TYR A   4     -54.630 -48.905 101.685  0.00  0.00    +0.000 A 
ATOM    133  CE2 TYR A   4     -54.183 -49.251  99.356  0.00  0.00    +0.000 A 
ATOM    134  CZ  TYR A   4     -54.046 -49.650 100.680  0.00  0.00    +0.000 A 
BRANCH 134 135
ATOM    135  OH  TYR A   4     -53.315 -50.791 101.004  0.00  0.00    +0.000 OA
ATOM    136  HH  TYR A   4     -52.977 -51.192 100.200  0.00  0.00    +0.000 HD
ENDBRANCH 134 135
ENDBRANCH 128 129
ENDBRANCH  88 128
ENDBRANCH  84  88
ENDBRANCH  83  86
BRANCH  83 137
ATOM    137  C   UNK A   5     -60.507 -42.882 101.595  0.00  0.00    +0.000 C 
BRANCH 137 138
ATOM    138  O   UNK A   5     -59.693 -42.883 102.763  0.00  0.00    +0.000 OA
ATOM    139  H   UNK A   5     -60.237 -42.693 103.531  0.00  0.00    +0.000 HD
ENDBRANCH 137 138
ENDBRANCH  83 137
ENDBRANCH  79  83
ENDBRANCH  78  81
BRANCH  78 140
ATOM    140  C   UNK A   5     -58.596 -38.609  99.509  0.00  0.00    +0.000 C 
BRANCH 140 141
ATOM    141  C   UNK A   5     -57.729 -37.382  99.542  0.00  0.00    +0.000 C 
BRANCH 141 142
ATOM    142  C   UNK A   5     -58.456 -36.190  98.956  0.00  0.00    +0.000 C 
BRANCH 142 143
ATOM    143  N   UNK A   5     -57.525 -35.091  98.895  0.00  0.00    +0.000 N 
ATOM    144  C   UNK A   5     -57.214 -34.279  99.903  0.00  0.00    +0.000 C 
ATOM    145  N   UNK A   5     -56.308 -33.319  99.698  0.00  0.00    +0.000 NA
ATOM    146  N   UNK A   5     -57.786 -34.401 101.108  0.00  0.00    +0.000 N 
ATOM    147  H   UNK A   5     -57.064 -34.921  98.001  0.00  0.00    +0.000 HD
ATOM    148  H   UNK A   5     -55.869 -33.219  98.783  0.00  0.00    +0.000 HD
ATOM    149  H   UNK A   5     -57.529 -33.763 101.862  0.00  0.00    +0.000 HD
ATOM    150  H   UNK A   5     -58.479 -35.132 101.272  0.00  0.00    +0.000 HD
ENDBRANCH 142 143
ENDBRANCH 141 142
ENDBRANCH 140 141
ENDBRANCH  78 140
ENDBRANCH   1  78
TORSDOF 49
