REMARK  Name = 6seo_ligand
REMARK  64 active torsions:
REMARK  status: ('A' for Active; 'I' for Inactive)
REMARK    1  A    between atoms: C_1  and  C_3
REMARK    2  A    between atoms: N_4  and  CA_5
REMARK    3  A    between atoms: CA_5  and  C_6
REMARK    4  A    between atoms: CA_5  and  CB_8
REMARK    5  A    between atoms: CB_8  and  CG1_9
REMARK    6  A    between atoms: CB_8  and  CG2_10
REMARK    7  A    between atoms: CA_12  and  C_13
REMARK    8  A    between atoms: N_18  and  CA_19
REMARK    9  A    between atoms: CA_19  and  C_20
REMARK   10  A    between atoms: CA_19  and  CB_22
REMARK   11  A    between atoms: CB_22  and  CG_23
REMARK   12  A    between atoms: CG_23  and  CD1_24
REMARK   13  A    between atoms: CG_23  and  CD2_25
REMARK   14  A    between atoms: N_26  and  CA_27
REMARK   15  A    between atoms: CA_27  and  C_28
REMARK   16  A    between atoms: CA_27  and  CB_30
REMARK   17  A    between atoms: CB_30  and  CG_31
REMARK   18  A    between atoms: CG_31  and  CD_32
REMARK   19  A    between atoms: CD_32  and  NE_33
REMARK   20  A    between atoms: N_37  and  CA_38
REMARK   21  A    between atoms: CA_38  and  C_39
REMARK   22  A    between atoms: CA_38  and  CB_41
REMARK   23  A    between atoms: N_42  and  CA_43
REMARK   24  A    between atoms: CA_43  and  C_44
REMARK   25  A    between atoms: CA_43  and  CB_46
REMARK   26  A    between atoms: CB_46  and  CG_47
REMARK   27  A    between atoms: CG_47  and  CD_48
REMARK   28  A    between atoms: CD_48  and  NE_49
REMARK   29  A    between atoms: N_53  and  CA_54
REMARK   30  A    between atoms: CA_54  and  C_55
REMARK   31  A    between atoms: CA_54  and  CB_57
REMARK   32  A    between atoms: CB_57  and  CG_58
REMARK   33  A    between atoms: N_61  and  CA_62
REMARK   34  A    between atoms: CA_62  and  C_63
REMARK   35  A    between atoms: CA_62  and  CB_65
REMARK   36  A    between atoms: CB_65  and  CG_66
REMARK   37  A    between atoms: CG_66  and  CD1_67
REMARK   38  A    between atoms: CG_66  and  CD2_68
REMARK   39  A    between atoms: CA_70  and  C_71
REMARK   40  A    between atoms: CA_77  and  C_78
REMARK   41  A    between atoms: N_83  and  C_84
REMARK   42  A    between atoms: C_84  and  C_85
REMARK   43  A    between atoms: C_84  and  C_87
REMARK   44  A    between atoms: C_87  and  O_88
REMARK   45  A    between atoms: N_89  and  C_90
REMARK   46  A    between atoms: C_90  and  C_91
REMARK   47  A    between atoms: C_90  and  C_93
REMARK   48  A    between atoms: C_93  and  C_94
REMARK   49  A    between atoms: N_100  and  C_101
REMARK   50  A    between atoms: C_101  and  C_102
REMARK   51  A    between atoms: C_101  and  C_104
REMARK   52  A    between atoms: C_104  and  C_105
REMARK   53  A    between atoms: N_111  and  C_112
REMARK   54  A    between atoms: C_112  and  C_113
REMARK   55  A    between atoms: C_112  and  C_115
REMARK   56  A    between atoms: C_115  and  O_116
REMARK   57  A    between atoms: C_115  and  C_117
REMARK   58  A    between atoms: N_118  and  C_119
REMARK   59  A    between atoms: C_119  and  C_120
REMARK   60  A    between atoms: C_119  and  C_122
REMARK   61  A    between atoms: C_122  and  C_123
REMARK   62  A    between atoms: C_123  and  C_124
REMARK   63  A    between atoms: C_124  and  O_126
REMARK   64  A    between atoms: C_128  and  C_129
REMARK                            x       y       z     vdW  Elec       q    Type
REMARK                         _______ _______ _______ _____ _____    ______ ____
ROOT
ATOM      1  CA  LEU A   8      -5.299  18.902  23.942  0.00  0.00    +0.000 C 
ENDROOT
BRANCH   1   2
ATOM      2  C   LEU A   8      -5.376  19.705  25.246  0.00  0.00    +0.000 C 
ATOM      3  O   LEU A   8      -6.460  20.240  25.519  0.00  0.00    +0.000 OA
ATOM      4  N   PRO A   9      -4.251  19.865  26.026  0.00  0.00    +0.000 N 
ATOM      5  CA  PRO A   9      -4.310  20.655  27.275  0.00  0.00    +0.000 C 
ATOM      6  CB  PRO A   9      -2.866  20.617  27.785  0.00  0.00    +0.000 C 
ATOM      7  CG  PRO A   9      -2.331  19.349  27.254  0.00  0.00    +0.000 C 
ATOM      8  CD  PRO A   9      -2.905  19.278  25.861  0.00  0.00    +0.000 C 
BRANCH   5   9
ATOM      9  C   PRO A   9      -4.828  22.084  27.080  0.00  0.00    +0.000 C 
ATOM     10  O   PRO A   9      -4.621  22.643  25.999  0.00  0.00    +0.000 OA
ATOM     11  N   PRO A  10      -5.551  22.660  28.084  0.00  0.00    +0.000 N 
ATOM     12  CA  PRO A  10      -6.134  24.012  27.919  0.00  0.00    +0.000 C 
ATOM     13  CB  PRO A  10      -6.775  24.281  29.279  0.00  0.00    +0.000 C 
ATOM     14  CG  PRO A  10      -7.058  22.926  29.828  0.00  0.00    +0.000 C 
ATOM     15  CD  PRO A  10      -5.897  22.095  29.406  0.00  0.00    +0.000 C 
BRANCH  12  16
ATOM     16  C   PRO A  10      -5.161  25.128  27.555  0.00  0.00    +0.000 C 
ATOM     17  O   PRO A  10      -5.576  26.134  26.968  0.00  0.00    +0.000 OA
ATOM     18  N   UNK A  11      -3.869  24.940  27.912  0.00  0.00    +0.000 N 
ATOM     19  H   UNK A  11      -3.651  24.066  28.391  0.00  0.00    +0.000 HD
BRANCH  18  20
ATOM     20  C   UNK A  11      -2.757  25.853  27.685  0.00  0.00    +0.000 C 
BRANCH  20  21
ATOM     21  C   UNK A  11      -2.419  25.989  26.212  0.00  0.00    +0.000 C 
ATOM     22  O   UNK A  11      -1.817  26.989  25.814  0.00  0.00    +0.000 OA
ATOM     23  N   UNK A  11      -2.783  24.981  25.399  0.00  0.00    +0.000 N 
ATOM     24  H   UNK A  11      -3.253  24.172  25.806  0.00  0.00    +0.000 HD
BRANCH  23  25
ATOM     25  C   UNK A  11      -2.536  24.993  23.960  0.00  0.00    +0.000 C 
BRANCH  25  26
ATOM     26  C   UNK A  11      -3.134  26.239  23.323  0.00  0.00    +0.000 C 
ATOM     27  O   UNK A  11      -2.497  26.839  22.450  0.00  0.00    +0.000 OA
ATOM     28  N   UNK A  11      -4.326  26.653  23.814  0.00  0.00    +0.000 N 
ATOM     29  H   UNK A  11      -4.739  26.112  24.573  0.00  0.00    +0.000 HD
BRANCH  28  30
ATOM     30  C   UNK A  11      -5.062  27.820  23.333  0.00  0.00    +0.000 C 
BRANCH  30  31
ATOM     31  C   UNK A  11      -4.854  29.055  24.209  0.00  0.00    +0.000 C 
ATOM     32  O   UNK A  11      -5.278  30.139  23.814  0.00  0.00    +0.000 OA
ATOM     33  N   UNK A  11      -4.139  28.911  25.354  0.00  0.00    +0.000 N 
ATOM     34  H   UNK A  11      -3.795  27.980  25.590  0.00  0.00    +0.000 HD
BRANCH  33  35
ATOM     35  C   UNK A  11      -3.830  30.020  26.278  0.00  0.00    +0.000 C 
BRANCH  35  36
ATOM     36  C   UNK A  11      -2.344  30.442  26.206  0.00  0.00    +0.000 C 
ATOM     37  O   UNK A  11      -1.482  29.869  26.900  0.00  0.00    +0.000 OA
ATOM     38  N   UNK A  11      -2.076  31.486  25.395  0.00  0.00    +0.000 N 
ATOM     39  H   UNK A  11      -2.854  31.893  24.877  0.00  0.00    +0.000 HD
BRANCH  38  40
ATOM     40  C   UNK A  11      -0.757  32.075  25.204  0.00  0.00    +0.000 C 
BRANCH  40  41
ATOM     41  C   UNK A  11      -0.153  32.520  26.550  0.00  0.00    +0.000 C 
ATOM     42  O   UNK A  11      -0.873  33.146  27.335  0.00  0.00    +0.000 OA
ATOM     43  N   UNK A  11       1.141  32.207  26.843  0.00  0.00    +0.000 N 
ATOM     44  C   UNK A  11       1.740  32.664  28.113  0.00  0.00    +0.000 C 
ATOM     45  C   UNK A  11       3.100  31.949  28.155  0.00  0.00    +0.000 C 
ATOM     46  C   UNK A  11       3.079  30.948  27.063  0.00  0.00    +0.000 C 
ATOM     47  C   UNK A  11       2.116  31.437  26.043  0.00  0.00    +0.000 C 
BRANCH  44  48
ATOM     48  C   UNK A  11       1.907  34.186  28.167  0.00  0.00    +0.000 C 
ATOM     49  O   UNK A  11       1.895  34.849  27.131  0.00  0.00    +0.000 OA
ATOM     50  N   UNK A  11       2.000  34.750  29.376  0.00  0.00    +0.000 N 
ATOM     51  H   UNK A  11       2.064  35.764  29.462  0.00  0.00    +0.000 HD
ATOM     52  H   UNK A  11       2.007  34.166  30.212  0.00  0.00    +0.000 HD
ENDBRANCH  44  48
ENDBRANCH  40  41
BRANCH  40  53
ATOM     53  C   UNK A  11      -0.839  33.258  24.215  0.00  0.00    +0.000 C 
BRANCH  53  54
ATOM     54  C   UNK A  11       0.520  33.878  23.903  0.00  0.00    +0.000 C 
BRANCH  54  55
ATOM     55  C   UNK A  11       0.614  35.064  22.960  0.00  0.00    +0.000 C 
ATOM     56  O   UNK A  11       1.758  35.487  22.675  0.00  0.00    +0.000 OA
BRANCH  55  57
ATOM     57  O   UNK A  11      -0.440  35.571  22.510  0.00  0.00    +0.000 OA
ATOM     58  H   UNK A  11      -1.197  35.093  22.856  0.00  0.00    +0.000 HD
ENDBRANCH  55  57
ENDBRANCH  54  55
ENDBRANCH  53  54
ENDBRANCH  40  53
ENDBRANCH  38  40
ENDBRANCH  35  36
BRANCH  35  59
ATOM     59  C   UNK A  11      -4.290  29.713  27.727  0.00  0.00    +0.000 C 
ATOM     60  C   UNK A  11      -4.163  30.918  28.650  0.00  0.00    +0.000 C 
BRANCH  59  61
ATOM     61  O   UNK A  11      -5.639  29.229  27.730  0.00  0.00    +0.000 OA
ATOM     62  H   UNK A  11      -5.909  29.044  28.632  0.00  0.00    +0.000 HD
ENDBRANCH  59  61
ENDBRANCH  35  59
ENDBRANCH  33  35
ENDBRANCH  30  31
BRANCH  30  63
ATOM     63  C   UNK A  11      -6.556  27.483  23.136  0.00  0.00    +0.000 C 
BRANCH  63  64
ATOM     64  C   UNK A  11      -6.782  26.075  22.625  0.00  0.00    +0.000 A 
ATOM     65  C   UNK A  11      -6.459  25.732  21.314  0.00  0.00    +0.000 A 
ATOM     66  C   UNK A  11      -7.221  25.070  23.481  0.00  0.00    +0.000 A 
ATOM     67  C   UNK A  11      -6.573  24.409  20.870  0.00  0.00    +0.000 A 
ATOM     68  C   UNK A  11      -7.353  23.752  23.030  0.00  0.00    +0.000 A 
ATOM     69  C   UNK A  11      -7.018  23.429  21.732  0.00  0.00    +0.000 A 
ENDBRANCH  63  64
ENDBRANCH  30  63
ENDBRANCH  28  30
ENDBRANCH  25  26
BRANCH  25  70
ATOM     70  C   UNK A  11      -3.113  23.749  23.308  0.00  0.00    +0.000 C 
BRANCH  70  71
ATOM     71  C   UNK A  11      -2.535  23.440  21.954  0.00  0.00    +0.000 A 
ATOM     72  C   UNK A  11      -2.987  24.101  20.819  0.00  0.00    +0.000 A 
ATOM     73  C   UNK A  11      -1.574  22.450  21.803  0.00  0.00    +0.000 A 
ATOM     74  C   UNK A  11      -2.475  23.790  19.566  0.00  0.00    +0.000 A 
ATOM     75  C   UNK A  11      -1.055  22.150  20.552  0.00  0.00    +0.000 A 
ATOM     76  C   UNK A  11      -1.522  22.808  19.441  0.00  0.00    +0.000 A 
ENDBRANCH  70  71
ENDBRANCH  25  70
ENDBRANCH  23  25
ENDBRANCH  20  21
BRANCH  20  77
ATOM     77  C   UNK A  11      -1.531  25.358  28.435  0.00  0.00    +0.000 C 
BRANCH  77  78
ATOM     78  O   UNK A  11      -1.237  24.027  28.051  0.00  0.00    +0.000 OA
ATOM     79  H   UNK A  11      -0.462  23.721  28.528  0.00  0.00    +0.000 HD
ENDBRANCH  77  78
ENDBRANCH  20  77
ENDBRANCH  18  20
ENDBRANCH  12  16
ENDBRANCH   5   9
ENDBRANCH   1   2
BRANCH   1  82
ATOM     80  C   ASN A   7      -6.706  16.939  23.370  0.00  0.00    +0.000 C 
ATOM     81  O   ASN A   7      -5.728  16.192  23.239  0.00  0.00    +0.000 OA
ATOM     82  N   LEU A   8      -6.587  18.240  23.693  0.00  0.00    +0.000 N 
ATOM     83  H   LEU A   8      -7.438  18.797  23.769  0.00  0.00    +0.000 HD
BRANCH  80  84
ATOM     84  CA  ASN A   7      -8.143  16.442  23.116  0.00  0.00    +0.000 C 
BRANCH  84  87
ATOM     85  C   ARG A   6      -8.950  18.110  21.424  0.00  0.00    +0.000 C 
ATOM     86  O   ARG A   6      -8.882  19.075  22.192  0.00  0.00    +0.000 OA
ATOM     87  N   ASN A   7      -8.605  16.860  21.784  0.00  0.00    +0.000 N 
ATOM     88  H   ASN A   7      -8.670  16.137  21.068  0.00  0.00    +0.000 HD
BRANCH  85  89
ATOM     89  CA  ARG A   6      -9.419  18.307  19.967  0.00  0.00    +0.000 C 
BRANCH  89  92
ATOM     90  C   ALA A   5     -11.576  19.530  20.081  0.00  0.00    +0.000 C 
ATOM     91  O   ALA A   5     -12.194  18.535  20.472  0.00  0.00    +0.000 OA
ATOM     92  N   ARG A   6     -10.257  19.504  19.828  0.00  0.00    +0.000 N 
ATOM     93  H   ARG A   6      -9.811  20.368  19.521  0.00  0.00    +0.000 HD
BRANCH  90  94
ATOM     94  CA  ALA A   5     -12.322  20.881  19.883  0.00  0.00    +0.000 C 
ATOM     95  CB  ALA A   5     -13.440  20.727  18.866  0.00  0.00    +0.000 C 
BRANCH  94  98
ATOM     96  C   ARG A   4     -10.908  22.892  20.362  0.00  0.00    +0.000 C 
ATOM     97  O   ARG A   4     -11.035  22.796  21.582  0.00  0.00    +0.000 OA
ATOM     98  N   ALA A   5     -11.461  22.013  19.500  0.00  0.00    +0.000 N 
ATOM     99  H   ALA A   5     -11.268  22.143  18.507  0.00  0.00    +0.000 HD
BRANCH  96 100
ATOM    100  CA  ARG A   4     -10.043  24.044  19.773  0.00  0.00    +0.000 C 
BRANCH 100 103
ATOM    101  C   LEU A   3      -8.599  22.802  18.187  0.00  0.00    +0.000 C 
ATOM    102  O   LEU A   3      -8.175  22.042  19.056  0.00  0.00    +0.000 OA
ATOM    103  N   ARG A   4      -9.517  23.766  18.429  0.00  0.00    +0.000 N 
ATOM    104  H   ARG A   4      -9.858  24.323  17.646  0.00  0.00    +0.000 HD
BRANCH 101 105
ATOM    105  CA  LEU A   3      -8.173  22.554  16.744  0.00  0.00    +0.000 C 
BRANCH 105 108
ATOM    106  C   PRO A   2     -10.395  21.872  15.972  0.00  0.00    +0.000 C 
ATOM    107  O   PRO A   2     -10.562  21.124  16.939  0.00  0.00    +0.000 OA
ATOM    108  N   LEU A   3      -9.282  22.621  15.794  0.00  0.00    +0.000 N 
ATOM    109  H   LEU A   3      -9.216  23.240  14.986  0.00  0.00    +0.000 HD
BRANCH 106 113
ATOM    110  C   VAL A   1     -11.296  19.568  14.290  0.00  0.00    +0.000 C 
ATOM    111  O   VAL A   1     -10.079  19.711  14.094  0.00  0.00    +0.000 OA
ATOM    112  N   PRO A   2     -12.096  20.627  14.662  0.00  0.00    +0.000 N 
ATOM    113  CA  PRO A   2     -11.496  21.955  14.925  0.00  0.00    +0.000 C 
ATOM    114  CB  PRO A   2     -12.682  22.786  15.446  0.00  0.00    +0.000 C 
ATOM    115  CG  PRO A   2     -13.863  22.124  14.936  0.00  0.00    +0.000 C 
ATOM    116  CD  PRO A   2     -13.548  20.662  14.918  0.00  0.00    +0.000 C 
BRANCH 110 117
ATOM    117  CA  VAL A   1     -11.923  18.172  13.987  0.00  0.00    +0.000 C 
BRANCH 117 121
ATOM    118  C   UNK A   0     -11.524  18.147  11.543  0.00  0.00    +0.000 C 
ATOM    119  O   UNK A   0     -12.156  19.186  11.328  0.00  0.00    +0.000 OA
ATOM    120  C   UNK A   0     -10.869  17.380  10.402  0.00  0.00    +0.000 C 
ATOM    121  N   VAL A   1     -11.361  17.612  12.750  0.00  0.00    +0.000 N 
ATOM    122  H   VAL A   1     -10.810  16.757  12.822  0.00  0.00    +0.000 HD
ENDBRANCH 117 121
BRANCH 117 123
ATOM    123  CB  VAL A   1     -11.821  17.124  15.155  0.00  0.00    +0.000 C 
ATOM    124  CG1 VAL A   1     -10.463  16.417  15.191  0.00  0.00    +0.000 C 
ATOM    125  CG2 VAL A   1     -12.198  17.699  16.522  0.00  0.00    +0.000 C 
ENDBRANCH 117 123
ENDBRANCH 110 117
ENDBRANCH 106 113
ENDBRANCH 105 108
BRANCH 105 126
ATOM    126  CB  LEU A   3      -7.000  23.436  16.347  0.00  0.00    +0.000 C 
BRANCH 126 127
ATOM    127  CG  LEU A   3      -5.794  22.685  15.790  0.00  0.00    +0.000 C 
ATOM    128  CD1 LEU A   3      -4.903  23.608  15.007  0.00  0.00    +0.000 C 
ATOM    129  CD2 LEU A   3      -4.998  22.000  16.893  0.00  0.00    +0.000 C 
ENDBRANCH 126 127
ENDBRANCH 105 126
ENDBRANCH 101 105
ENDBRANCH 100 103
BRANCH 100 130
ATOM    130  CB  ARG A   4     -10.794  25.384  19.811  0.00  0.00    +0.000 C 
BRANCH 130 131
ATOM    131  CG  ARG A   4     -10.804  26.023  21.200  0.00  0.00    +0.000 C 
BRANCH 131 132
ATOM    132  CD  ARG A   4     -10.922  27.530  21.147  0.00  0.00    +0.000 C 
BRANCH 132 133
ATOM    133  NE  ARG A   4      -9.618  28.187  21.239  0.00  0.00    +0.000 N 
ATOM    134  CZ  ARG A   4      -8.902  28.606  20.195  0.00  0.00    +0.000 C 
ATOM    135  NH1 ARG A   4      -9.356  28.438  18.957  0.00  0.00    +0.000 NA
ATOM    136  NH2 ARG A   4      -7.727  29.199  20.383  0.00  0.00    +0.000 N 
ATOM    137  HE  ARG A   4      -9.228  28.335  22.170  0.00  0.00    +0.000 HD
ATOM    138  HH1 ARG A   4     -10.257  27.986  18.801  0.00  0.00    +0.000 HD
ATOM    139 HH21 ARG A   4      -7.184  29.520  19.582  0.00  0.00    +0.000 HD
ATOM    140 HH22 ARG A   4      -7.369  29.333  21.329  0.00  0.00    +0.000 HD
ENDBRANCH 132 133
ENDBRANCH 131 132
ENDBRANCH 130 131
ENDBRANCH 100 130
ENDBRANCH  96 100
ENDBRANCH  94  98
ENDBRANCH  90  94
ENDBRANCH  89  92
BRANCH  89 141
ATOM    141  CB  ARG A   6      -8.202  18.367  19.012  0.00  0.00    +0.000 C 
BRANCH 141 142
ATOM    142  CG  ARG A   6      -8.553  18.619  17.549  0.00  0.00    +0.000 C 
BRANCH 142 143
ATOM    143  CD  ARG A   6      -7.459  18.218  16.580  0.00  0.00    +0.000 C 
BRANCH 143 144
ATOM    144  NE  ARG A   6      -7.821  18.570  15.205  0.00  0.00    +0.000 N 
ATOM    145  CZ  ARG A   6      -7.293  18.024  14.111  0.00  0.00    +0.000 C 
ATOM    146  NH1 ARG A   6      -6.360  17.084  14.210  0.00  0.00    +0.000 N 
ATOM    147  NH2 ARG A   6      -7.693  18.417  12.908  0.00  0.00    +0.000 NA
ATOM    148  HE  ARG A   6      -8.533  19.289  15.075  0.00  0.00    +0.000 HD
ATOM    149 HH11 ARG A   6      -5.959  16.672  13.367  0.00  0.00    +0.000 HD
ATOM    150 HH12 ARG A   6      -6.044  16.774  15.129  0.00  0.00    +0.000 HD
ATOM    151  HH2 ARG A   6      -8.407  19.140  12.819  0.00  0.00    +0.000 HD
ENDBRANCH 143 144
ENDBRANCH 142 143
ENDBRANCH 141 142
ENDBRANCH  89 141
ENDBRANCH  85  89
ENDBRANCH  84  87
BRANCH  84 152
ATOM    152  CB  ASN A   7      -8.337  14.893  23.282  0.00  0.00    +0.000 C 
BRANCH 152 153
ATOM    153  CG  ASN A   7      -7.828  14.217  24.552  0.00  0.00    +0.000 C 
ATOM    154  OD1 ASN A   7      -7.404  13.046  24.520  0.00  0.00    +0.000 OA
ATOM    155  ND2 ASN A   7      -7.869  14.910  25.696  0.00  0.00    +0.000 N 
ATOM    156 HD21 ASN A   7      -7.549  14.480  26.564  0.00  0.00    +0.000 HD
ATOM    157 HD22 ASN A   7      -8.220  15.868  25.700  0.00  0.00    +0.000 HD
ENDBRANCH 152 153
ENDBRANCH  84 152
ENDBRANCH  80  84
ENDBRANCH   1  82
BRANCH   1 158
ATOM    158  CB  LEU A   8      -4.947  19.865  22.780  0.00  0.00    +0.000 C 
BRANCH 158 159
ATOM    159  CG  LEU A   8      -4.926  19.312  21.366  0.00  0.00    +0.000 C 
ATOM    160  CD1 LEU A   8      -5.026  20.414  20.362  0.00  0.00    +0.000 C 
ATOM    161  CD2 LEU A   8      -3.709  18.483  21.125  0.00  0.00    +0.000 C 
ENDBRANCH 158 159
ENDBRANCH   1 158
TORSDOF 55
