REMARK  Name = 6nrj_ligand
REMARK  6 active torsions:
REMARK  status: ('A' for Active; 'I' for Inactive)
REMARK    1  A    between atoms: C_2  and  C_4
REMARK    2  A    between atoms: C_7  and  C_8
REMARK    3  A    between atoms: C_15  and  C_16
REMARK    4  A    between atoms: N_17  and  C_20
REMARK    5  A    between atoms: C_20  and  C_21
REMARK    6  A    between atoms: C_21  and  C_22
REMARK                            x       y       z     vdW  Elec       q    Type
REMARK                         _______ _______ _______ _____ _____    ______ ____
ROOT
ATOM      1  C   UNL     1      26.137  -8.033   7.445  0.00  0.00    +0.000 A 
ATOM      2  C   UNL     1      25.302  -9.096   7.150  0.00  0.00    +0.000 A 
ATOM      3  C   UNL     1      25.542  -9.904   6.041  0.00  0.00    +0.000 A 
ATOM      4  C   UNL     1      27.246  -7.751   6.652  0.00  0.00    +0.000 A 
ATOM      5  C   UNL     1      26.624  -9.599   5.219  0.00  0.00    +0.000 A 
ATOM      6  C   UNL     1      27.467  -8.550   5.527  0.00  0.00    +0.000 A 
ENDROOT
BRANCH   4  14
ATOM      7  C   UNL     1      27.715  -4.177  10.947  0.00  0.00    +0.000 A 
ATOM      8  C   UNL     1      28.482  -3.195  11.582  0.00  0.00    +0.000 A 
ATOM      9  C   UNL     1      29.623  -2.674  10.989  0.00  0.00    +0.000 A 
ATOM     10  C   UNL     1      30.024  -3.100   9.735  0.00  0.00    +0.000 A 
ATOM     11  C   UNL     1      29.278  -4.079   9.086  0.00  0.00    +0.000 A 
ATOM     12  C   UNL     1      29.487  -4.799   7.822  0.00  0.00    +0.000 C 
ATOM     13  C   UNL     1      28.430  -5.808   7.805  0.00  0.00    +0.000 C 
ATOM     14  C   UNL     1      28.268  -6.741   6.867  0.00  0.00    +0.000 C 
ATOM     15  O   UNL     1      30.309  -4.572   6.910  0.00  0.00    +0.000 OA
ATOM     16  O   UNL     1      27.643  -5.675   8.940  0.00  0.00    +0.000 OA
ATOM     17  C   UNL     1      28.154  -4.634   9.698  0.00  0.00    +0.000 A 
BRANCH   7  19
ATOM     18  N   UNL     1      25.857  -5.735  11.170  0.00  0.00    +0.000 N 
ATOM     19  C   UNL     1      26.467  -4.649  11.643  0.00  0.00    +0.000 C 
ATOM     20  O   UNL     1      26.022  -4.027  12.647  0.00  0.00    +0.000 OA
ATOM     21  H   UNL     1      25.010  -6.082  11.621  0.00  0.00    +0.000 HD
ATOM     22  H   UNL     1      26.237  -6.220  10.357  0.00  0.00    +0.000 HD
ENDBRANCH   7  19
ENDBRANCH   4  14
BRANCH   3  23
ATOM     23  C   UNL     1      24.695 -11.117   5.806  0.00  0.00    +0.000 C 
ATOM     24  N   UNL     1      25.172 -12.040   4.965  0.00  0.00    +0.000 N 
ATOM     25  O   UNL     1      23.627 -11.256   6.394  0.00  0.00    +0.000 OA
ATOM     26  H   UNL     1      26.094 -11.898   4.552  0.00  0.00    +0.000 HD
BRANCH  24  27
ATOM     27  C   UNL     1      24.425 -13.244   4.614  0.00  0.00    +0.000 C 
BRANCH  27  28
ATOM     28  C   UNL     1      25.275 -14.493   4.747  0.00  0.00    +0.000 C 
BRANCH  28  29
ATOM     29  C   UNL     1      25.482 -14.887   6.168  0.00  0.00    +0.000 C 
ATOM     30  N   UNL     1      25.016 -16.055   6.672  0.00  0.00    +0.000 NA
ATOM     31  C   UNL     1      25.388 -16.102   8.002  0.00  0.00    +0.000 C 
ATOM     32  C   UNL     1      25.214 -17.056   8.996  0.00  0.00    +0.000 C 
ATOM     33  C   UNL     1      25.773 -16.812  10.244  0.00  0.00    +0.000 C 
ATOM     34  C   UNL     1      26.467 -15.633  10.494  0.00  0.00    +0.000 C 
ATOM     35  C   UNL     1      26.635 -14.681   9.495  0.00  0.00    +0.000 C 
ATOM     36  C   UNL     1      26.091 -14.922   8.235  0.00  0.00    +0.000 C 
ATOM     37  N   UNL     1      26.136 -14.168   7.061  0.00  0.00    +0.000 NA
ENDBRANCH  28  29
ENDBRANCH  27  28
ENDBRANCH  24  27
ENDBRANCH   3  23
TORSDOF 6
