REMARK  Name = 6hld_ligand
REMARK  39 active torsions:
REMARK  status: ('A' for Active; 'I' for Inactive)
REMARK    1  A    between atoms: N_1  and  C_2
REMARK    2  A    between atoms: C_2  and  C_3
REMARK    3  A    between atoms: C_2  and  C_5
REMARK    4  A    between atoms: C_5  and  C_6
REMARK    5  A    between atoms: N_16  and  C_17
REMARK    6  A    between atoms: C_17  and  C_18
REMARK    7  A    between atoms: C_17  and  C_20
REMARK    8  A    between atoms: C_20  and  C_21
REMARK    9  A    between atoms: C_21  and  C_22
REMARK   10  A    between atoms: C_22  and  N_23
REMARK   11  A    between atoms: N_27  and  C_28
REMARK   12  A    between atoms: C_28  and  C_29
REMARK   13  A    between atoms: C_28  and  C_31
REMARK   14  A    between atoms: C_31  and  C_32
REMARK   15  A    between atoms: C_32  and  C_33
REMARK   16  A    between atoms: C_33  and  N_34
REMARK   17  A    between atoms: N_38  and  C_39
REMARK   18  A    between atoms: C_39  and  C_40
REMARK   19  A    between atoms: C_39  and  C_42
REMARK   20  A    between atoms: C_42  and  C_43
REMARK   21  A    between atoms: C_43  and  C_44
REMARK   22  A    between atoms: C_44  and  N_45
REMARK   23  A    between atoms: C_49  and  C_52
REMARK   24  A    between atoms: N_50  and  C_52
REMARK   25  A    between atoms: C_52  and  C_53
REMARK   26  A    between atoms: C_53  and  C_56
REMARK   27  A    between atoms: C_54  and  C_55
REMARK   28  A    between atoms: C_54  and  C_56
REMARK   29  A    between atoms: C_55  and  N_57
REMARK   30  A    between atoms: N_58  and  C_59
REMARK   31  A    between atoms: C_59  and  C_60
REMARK   32  A    between atoms: C_59  and  C_62
REMARK   33  A    between atoms: C_62  and  C_63
REMARK   34  A    between atoms: C_63  and  C_64
REMARK   35  A    between atoms: C_64  and  C_65
REMARK   36  A    between atoms: C_65  and  N_66
REMARK   37  A    between atoms: N_67  and  C_68
REMARK   38  A    between atoms: C_68  and  C_69
REMARK   39  A    between atoms: C_72  and  C_73
REMARK                            x       y       z     vdW  Elec       q    Type
REMARK                         _______ _______ _______ _____ _____    ______ ____
ROOT
ATOM      1  C   UNL     1      51.087 -34.843  -5.197  0.00  0.00    +0.000 C 
ENDROOT
BRANCH   1   4
ATOM      2  C   UNL     1      53.267 -34.973  -4.005  0.00  0.00    +0.000 C 
ATOM      3  O   UNL     1      52.815 -35.720  -3.134  0.00  0.00    +0.000 OA
ATOM      4  N   UNL     1      52.517 -34.495  -5.027  0.00  0.00    +0.000 N 
ATOM      5  H   UNL     1      52.954 -33.871  -5.706  0.00  0.00    +0.000 HD
BRANCH   2   6
ATOM      6  C   UNL     1      54.750 -34.515  -3.949  0.00  0.00    +0.000 C 
BRANCH   6   9
ATOM      7  C   UNL     1      55.639 -35.627  -5.969  0.00  0.00    +0.000 C 
ATOM      8  O   UNL     1      55.446 -36.754  -5.512  0.00  0.00    +0.000 OA
ATOM      9  N   UNL     1      55.334 -34.497  -5.306  0.00  0.00    +0.000 N 
ATOM     10  H   UNL     1      55.512 -33.598  -5.755  0.00  0.00    +0.000 HD
BRANCH   7  11
ATOM     11  C   UNL     1      56.233 -35.417  -7.376  0.00  0.00    +0.000 C 
BRANCH  11  14
ATOM     12  C   UNL     1      58.648 -35.945  -7.448  0.00  0.00    +0.000 C 
ATOM     13  O   UNL     1      58.964 -34.830  -7.031  0.00  0.00    +0.000 OA
ATOM     14  N   UNL     1      57.368 -36.328  -7.639  0.00  0.00    +0.000 N 
ATOM     15  H   UNL     1      57.178 -37.272  -7.974  0.00  0.00    +0.000 HD
BRANCH  12  16
ATOM     16  C   UNL     1      59.746 -36.987  -7.785  0.00  0.00    +0.000 C 
BRANCH  16  17
ATOM     17  N   UNL     1      59.183 -38.337  -7.993  0.00  0.00    +0.000 N 
ATOM     18  H   UNL     1      58.669 -38.622  -7.160  0.00  0.00    +0.000 HD
ATOM     19  H   UNL     1      58.552 -38.321  -8.794  0.00  0.00    +0.000 HD
ATOM     20  H   UNL     1      59.941 -38.997  -8.168  0.00  0.00    +0.000 HD
ENDBRANCH  16  17
BRANCH  16  21
ATOM     21  C   UNL     1      60.532 -36.515  -9.018  0.00  0.00    +0.000 C 
BRANCH  21  22
ATOM     22  C   UNL     1      61.901 -36.701  -8.828  0.00  0.00    +0.000 A 
ATOM     23  C   UNL     1      62.394 -37.152  -7.607  0.00  0.00    +0.000 A 
ATOM     24  C   UNL     1      63.760 -37.332  -7.428  0.00  0.00    +0.000 A 
ATOM     25  C   UNL     1      62.781 -36.427  -9.869  0.00  0.00    +0.000 A 
ATOM     26  C   UNL     1      64.148 -36.607  -9.690  0.00  0.00    +0.000 A 
ATOM     27  C   UNL     1      64.637 -37.059  -8.470  0.00  0.00    +0.000 A 
ATOM     28  C   UNL     1      62.294 -35.974 -11.090  0.00  0.00    +0.000 A 
ATOM     29  C   UNL     1      63.172 -35.701 -12.132  0.00  0.00    +0.000 A 
ATOM     30  C   UNL     1      64.539 -35.881 -11.952  0.00  0.00    +0.000 A 
ATOM     31  C   UNL     1      65.026 -36.334 -10.732  0.00  0.00    +0.000 A 
ENDBRANCH  21  22
ENDBRANCH  16  21
ENDBRANCH  12  16
ENDBRANCH  11  14
BRANCH  11  32
ATOM     32  C   UNL     1      55.144 -35.620  -8.440  0.00  0.00    +0.000 C 
BRANCH  32  33
ATOM     33  C   UNL     1      55.371 -34.603  -9.565  0.00  0.00    +0.000 C 
BRANCH  33  34
ATOM     34  C   UNL     1      54.398 -34.836 -10.729  0.00  0.00    +0.000 C 
BRANCH  34  35
ATOM     35  N   UNL     1      53.035 -34.319 -10.452  0.00  0.00    +0.000 N 
ATOM     36  C   UNL     1      52.665 -33.033 -10.207  0.00  0.00    +0.000 C 
ATOM     37  N   UNL     1      51.369 -32.751 -10.009  0.00  0.00    +0.000 NA
ATOM     38  N   UNL     1      53.558 -32.026 -10.152  0.00  0.00    +0.000 N 
ATOM     39  H   UNL     1      52.285 -35.011 -10.444  0.00  0.00    +0.000 HD
ATOM     40  H   UNL     1      50.674 -33.497 -10.043  0.00  0.00    +0.000 HD
ATOM     41  H   UNL     1      53.243 -31.075  -9.963  0.00  0.00    +0.000 HD
ATOM     42  H   UNL     1      54.550 -32.215 -10.299  0.00  0.00    +0.000 HD
ENDBRANCH  34  35
ENDBRANCH  33  34
ENDBRANCH  32  33
ENDBRANCH  11  32
ENDBRANCH   7  11
ENDBRANCH   6   9
BRANCH   6  43
ATOM     43  C   UNL     1      54.899 -33.116  -3.315  0.00  0.00    +0.000 C 
BRANCH  43  44
ATOM     44  C   UNL     1      54.379 -33.090  -1.849  0.00  0.00    +0.000 C 
BRANCH  44  45
ATOM     45  C   UNL     1      54.762 -31.750  -1.203  0.00  0.00    +0.000 C 
BRANCH  45  46
ATOM     46  N   UNL     1      54.127 -31.539   0.113  0.00  0.00    +0.000 N 
ATOM     47  C   UNL     1      52.948 -30.904   0.288  0.00  0.00    +0.000 C 
ATOM     48  N   UNL     1      52.269 -30.463  -0.794  0.00  0.00    +0.000 NA
ATOM     49  N   UNL     1      52.446 -30.728   1.541  0.00  0.00    +0.000 N 
ATOM     50  H   UNL     1      54.608 -31.894   0.940  0.00  0.00    +0.000 HD
ATOM     51  H   UNL     1      52.648 -30.611  -1.729  0.00  0.00    +0.000 HD
ATOM     52  H   UNL     1      51.549 -30.259   1.670  0.00  0.00    +0.000 HD
ATOM     53  H   UNL     1      52.967 -31.065   2.351  0.00  0.00    +0.000 HD
ENDBRANCH  45  46
ENDBRANCH  44  45
ENDBRANCH  43  44
ENDBRANCH   6  43
ENDBRANCH   2   6
ENDBRANCH   1   4
BRANCH   1  54
ATOM     54  C   UNL     1      50.844 -35.350  -6.645  0.00  0.00    +0.000 C 
ATOM     55  O   UNL     1      51.493 -34.898  -7.588  0.00  0.00    +0.000 OA
ATOM     56  N   UNL     1      49.926 -36.323  -6.786  0.00  0.00    +0.000 N 
ATOM     57  H   UNL     1      49.414 -36.634  -5.960  0.00  0.00    +0.000 HD
BRANCH  56  58
ATOM     58  C   UNL     1      49.626 -36.963  -8.089  0.00  0.00    +0.000 C 
BRANCH  58  59
ATOM     59  C   UNL     1      48.126 -36.866  -8.422  0.00  0.00    +0.000 C 
ATOM     60  O   UNL     1      47.283 -36.839  -7.519  0.00  0.00    +0.000 OA
ATOM     61  N   UNL     1      47.824 -36.835  -9.742  0.00  0.00    +0.000 N 
ATOM     62  H   UNL     1      48.594 -36.829 -10.411  0.00  0.00    +0.000 HD
BRANCH  61  63
ATOM     63  C   UNL     1      46.449 -36.810 -10.266  0.00  0.00    +0.000 C 
BRANCH  63  64
ATOM     64  C   UNL     1      45.859 -38.181  -9.924  0.00  0.00    +0.000 C 
ATOM     65  O   UNL     1      46.558 -39.179 -10.043  0.00  0.00    +0.000 OA
ATOM     66  N   UNL     1      44.595 -38.214  -9.461  0.00  0.00    +0.000 N 
ATOM     67  H   UNL     1      44.056 -37.349  -9.430  0.00  0.00    +0.000 HD
BRANCH  66  68
ATOM     68  C   UNL     1      43.966 -39.468  -8.996  0.00  0.00    +0.000 C 
BRANCH  68  69
ATOM     69  C   UNL     1      44.089 -39.513  -7.555  0.00  0.00    +0.000 A 
ATOM     70  C   UNL     1      43.005 -39.245  -6.731  0.00  0.00    +0.000 A 
ATOM     71  C   UNL     1      43.100 -39.261  -5.327  0.00  0.00    +0.000 A 
ATOM     72  C   UNL     1      44.305 -39.567  -4.688  0.00  0.00    +0.000 A 
ATOM     73  C   UNL     1      45.400 -39.843  -5.510  0.00  0.00    +0.000 A 
ATOM     74  C   UNL     1      45.298 -39.812  -6.920  0.00  0.00    +0.000 A 
BRANCH  72  75
ATOM     75  C   UNL     1      44.412 -39.598  -3.277  0.00  0.00    +0.000 C 
ATOM     76  N   UNL     1      45.607 -39.837  -2.710  0.00  0.00    +0.000 N 
ATOM     77  N   UNL     1      43.326 -39.347  -2.533  0.00  0.00    +0.000 NA
ATOM     78  H   UNL     1      45.700 -39.830  -1.694  0.00  0.00    +0.000 HD
ATOM     79  H   UNL     1      46.421 -40.026  -3.295  0.00  0.00    +0.000 HD
ATOM     80  H   UNL     1      42.436 -39.137  -2.985  0.00  0.00    +0.000 HD
ENDBRANCH  72  75
ENDBRANCH  68  69
ENDBRANCH  66  68
ENDBRANCH  63  64
BRANCH  63  81
ATOM     81  C   UNL     1      46.455 -36.641 -11.805  0.00  0.00    +0.000 C 
BRANCH  81  82
ATOM     82  C   UNL     1      46.974 -35.262 -12.211  0.00  0.00    +0.000 C 
BRANCH  82  83
ATOM     83  C   UNL     1      47.044 -35.124 -13.760  0.00  0.00    +0.000 C 
BRANCH  83  84
ATOM     84  C   UNL     1      47.192 -33.634 -14.109  0.00  0.00    +0.000 C 
BRANCH  84  85
ATOM     85  N   UNL     1      47.749 -33.404 -15.456  0.00  0.00    +0.000 N 
ATOM     86  H   UNL     1      47.822 -32.401 -15.626  0.00  0.00    +0.000 HD
ATOM     87  H   UNL     1      48.675 -33.828 -15.517  0.00  0.00    +0.000 HD
ATOM     88  H   UNL     1      47.134 -33.824 -16.153  0.00  0.00    +0.000 HD
ENDBRANCH  84  85
ENDBRANCH  83  84
ENDBRANCH  82  83
ENDBRANCH  81  82
ENDBRANCH  63  81
ENDBRANCH  61  63
ENDBRANCH  58  59
BRANCH  58  89
ATOM     89  C   UNL     1      49.976 -38.457  -7.952  0.00  0.00    +0.000 C 
BRANCH  89  90
ATOM     90  C   UNL     1      51.483 -38.689  -7.711  0.00  0.00    +0.000 C 
BRANCH  90  91
ATOM     91  C   UNL     1      52.133 -39.284  -8.979  0.00  0.00    +0.000 C 
BRANCH  91  92
ATOM     92  C   UNL     1      53.608 -39.644  -8.721  0.00  0.00    +0.000 C 
BRANCH  92  93
ATOM     93  N   UNL     1      54.369 -39.755  -9.982  0.00  0.00    +0.000 N 
ATOM     94  H   UNL     1      55.338 -39.994  -9.773  0.00  0.00    +0.000 HD
ATOM     95  H   UNL     1      53.956 -40.484 -10.564  0.00  0.00    +0.000 HD
ATOM     96  H   UNL     1      54.336 -38.864 -10.477  0.00  0.00    +0.000 HD
ENDBRANCH  92  93
ENDBRANCH  91  92
ENDBRANCH  90  91
ENDBRANCH  89  90
ENDBRANCH  58  89
ENDBRANCH  56  58
ENDBRANCH   1  54
BRANCH   1  97
ATOM     97  C   UNL     1      50.207 -33.622  -4.840  0.00  0.00    +0.000 C 
BRANCH  97  98
ATOM     98  C   UNL     1      50.526 -33.107  -3.410  0.00  0.00    +0.000 C 
BRANCH  98  99
ATOM     99  C   UNL     1      49.855 -34.022  -2.372  0.00  0.00    +0.000 C 
BRANCH  99 100
ATOM    100  N   UNL     1      50.052 -33.552  -0.984  0.00  0.00    +0.000 N 
ATOM    101  C   UNL     1      50.864 -34.176  -0.095  0.00  0.00    +0.000 C 
ATOM    102  N   UNL     1      50.960 -33.746   1.182  0.00  0.00    +0.000 N 
ATOM    103  N   UNL     1      51.576 -35.246  -0.478  0.00  0.00    +0.000 NA
ATOM    104  H   UNL     1      49.552 -32.717  -0.680  0.00  0.00    +0.000 HD
ATOM    105  H   UNL     1      51.568 -34.234   1.840  0.00  0.00    +0.000 HD
ATOM    106  H   UNL     1      50.425 -32.934   1.488  0.00  0.00    +0.000 HD
ATOM    107  H   UNL     1      51.506 -35.589  -1.436  0.00  0.00    +0.000 HD
ENDBRANCH  99 100
ENDBRANCH  98  99
ENDBRANCH  97  98
ENDBRANCH   1  97
TORSDOF 39
