REMARK  Name = 6pno_ligand
REMARK  7 active torsions:
REMARK  status: ('A' for Active; 'I' for Inactive)
REMARK    1  A    between atoms: C_1  and  C_2
REMARK    2  A    between atoms: N_4  and  C_5
REMARK    3  A    between atoms: C_11  and  S_12
REMARK    4  A    between atoms: S_12  and  N_15
REMARK    5  A    between atoms: N_15  and  C_16
REMARK    6  A    between atoms: C_16  and  C_17
REMARK    7  A    between atoms: C_16  and  C_18
REMARK                            x       y       z     vdW  Elec       q    Type
REMARK                         _______ _______ _______ _____ _____    ______ ____
ROOT
ATOM      1  C   UNL     1      16.469  -5.526  15.838  0.00  0.00    +0.000 A 
ATOM      2  C   UNL     1      17.304  -4.665  16.564  0.00  0.00    +0.000 A 
ATOM      3  C   UNL     1      15.102  -5.532  16.010  0.00  0.00    +0.000 A 
ATOM      4  C   UNL     1      14.526  -4.610  16.874  0.00  0.00    +0.000 A 
ATOM      5  C   UNL     1      15.343  -3.761  17.598  0.00  0.00    +0.000 A 
ATOM      6 CL   UNL     1      14.625  -2.709  18.516  0.00  0.00    +0.000 Cl
ATOM      7  C   UNL     1      16.732  -3.772  17.430  0.00  0.00    +0.000 A 
ENDROOT
BRANCH   1  11
ATOM      8  C   UNL     1      18.537  -7.460  13.577  0.00  0.00    +0.000 C 
ATOM      9  C   UNL     1      18.129  -6.249  14.392  0.00  0.00    +0.000 C 
ATOM     10  O   UNL     1      18.816  -5.193  14.348  0.00  0.00    +0.000 OA
ATOM     11  N   UNL     1      16.974  -6.468  15.023  0.00  0.00    +0.000 N 
ATOM     12  H   UNL     1      16.476  -7.348  14.887  0.00  0.00    +0.000 HD
ENDBRANCH   1  11
BRANCH   7  13
ATOM     13  S   UNL     1      17.774  -2.704  18.295  0.00  0.00    +0.000 S 
ATOM     14  O   UNL     1      19.183  -2.838  17.905  0.00  0.00    +0.000 OA
ATOM     15  O   UNL     1      17.538  -3.138  19.790  0.00  0.00    +0.000 OA
BRANCH  13  16
ATOM     16  N   UNL     1      17.223  -1.121  18.188  0.00  0.00    +0.000 NA
ATOM     17  H   UNL     1      16.988  -0.604  19.035  0.00  0.00    +0.000 HD
BRANCH  16  18
ATOM     18  C   UNL     1      17.078  -0.470  16.850  0.00  0.00    +0.000 C 
ATOM     19  C   UNL     1      15.605  -0.081  16.635  0.00  0.00    +0.000 C 
ATOM     20  C   UNL     1      17.595  -1.227  15.618  0.00  0.00    +0.000 C 
ENDBRANCH  16  18
ENDBRANCH  13  16
ENDBRANCH   7  13
TORSDOF 4
