REMARK  Name = 6hzc_ligand
REMARK  17 active torsions:
REMARK  status: ('A' for Active; 'I' for Inactive)
REMARK    1  A    between atoms: N_1  and  C_2
REMARK    2  A    between atoms: C_11  and  C_14
REMARK    3  A    between atoms: C_14  and  C_15
REMARK    4  A    between atoms: C_15  and  C_16
REMARK    5  A    between atoms: C_16  and  N_17
REMARK    6  A    between atoms: C_22  and  C_25
REMARK    7  A    between atoms: C_25  and  C_26
REMARK    8  A    between atoms: C_26  and  C_27
REMARK    9  A    between atoms: C_27  and  N_28
REMARK   10  A    between atoms: C_33  and  C_34
REMARK   11  A    between atoms: C_34  and  C_35
REMARK   12  A    between atoms: C_34  and  C_36
REMARK   13  A    between atoms: C_34  and  C_37
REMARK   14  A    between atoms: C_41  and  C_42
REMARK   15  A    between atoms: N_49  and  C_50
REMARK   16  A    between atoms: C_50  and  C_51
REMARK   17  A    between atoms: C_54  and  C_55
REMARK                            x       y       z     vdW  Elec       q    Type
REMARK                         _______ _______ _______ _____ _____    ______ ____
ROOT
ATOM      1  C   UNL     1      55.302 -35.730  -6.926  0.00  0.00    +0.000 C 
ATOM      2  C   UNL     1      54.817 -35.675  -5.620  0.00  0.00    +0.000 C 
ATOM      3  O   UNL     1      54.553 -36.696  -4.987  0.00  0.00    +0.000 OA
ATOM      4  C   UNL     1      54.080 -35.663  -7.827  0.00  0.00    +0.000 C 
ATOM      5  C   UNL     1      54.436 -35.628  -9.282  0.00  0.00    +0.000 C 
ATOM      6  C   UNL     1      53.134 -35.528 -10.065  0.00  0.00    +0.000 C 
ATOM      7  C   UNL     1      53.284 -34.375 -10.994  0.00  0.00    +0.000 C 
ATOM      8  N   UNL     1      54.484 -34.639 -11.793  0.00  0.00    +0.000 N 
ATOM      9  N   UNL     1      54.550 -34.433  -5.046  0.00  0.00    +0.000 N 
ATOM     10  C   UNL     1      53.986 -34.371  -3.685  0.00  0.00    +0.000 C 
ATOM     11  C   UNL     1      52.603 -34.634  -3.791  0.00  0.00    +0.000 C 
ATOM     12  O   UNL     1      52.010 -35.280  -2.925  0.00  0.00    +0.000 OA
ATOM     13  N   UNL     1      51.885 -34.201  -4.919  0.00  0.00    +0.000 N 
ATOM     14  C   UNL     1      50.427 -34.479  -5.061  0.00  0.00    +0.000 C 
ATOM     15  C   UNL     1      50.198 -34.964  -6.360  0.00  0.00    +0.000 C 
ATOM     16  O   UNL     1      50.889 -34.575  -7.302  0.00  0.00    +0.000 OA
ATOM     17  N   UNL     1      49.200 -35.927  -6.599  0.00  0.00    +0.000 N 
ATOM     18  C   UNL     1      48.959 -36.528  -7.938  0.00  0.00    +0.000 C 
ATOM     19  C   UNL     1      47.595 -36.467  -8.321  0.00  0.00    +0.000 C 
ATOM     20  O   UNL     1      46.701 -36.469  -7.476  0.00  0.00    +0.000 OA
ATOM     21  N   UNL     1      47.247 -36.385  -9.686  0.00  0.00    +0.000 N 
ATOM     22  C   UNL     1      45.862 -36.427 -10.214  0.00  0.00    +0.000 C 
ATOM     23  C   UNL     1      45.832 -36.259 -11.741  0.00  0.00    +0.000 C 
ATOM     24  C   UNL     1      46.352 -34.895 -12.109  0.00  0.00    +0.000 C 
ATOM     25  C   UNL     1      46.759 -34.794 -13.596  0.00  0.00    +0.000 C 
ATOM     26  C   UNL     1      46.709 -33.302 -13.932  0.00  0.00    +0.000 C 
ATOM     27  N   UNL     1      47.702 -32.796 -14.921  0.00  0.00    +0.000 N 
ATOM     28  C   UNL     1      48.922 -32.263 -14.427  0.00  0.00    +0.000 C 
ATOM     29  C   UNL     1      49.889 -31.738 -15.283  0.00  0.00    +0.000 C 
ATOM     30  C   UNL     1      49.877 -32.493 -16.567  0.00  0.00    +0.000 C 
ATOM     31  C   UNL     1      50.636 -33.806 -16.439  0.00  0.00    +0.000 C 
ATOM     32  C   UNL     1      51.942 -33.631 -16.889  0.00  0.00    +0.000 C 
ATOM     33  O   UNL     1      49.126 -32.262 -13.213  0.00  0.00    +0.000 OA
ATOM     34  O   UNL     1      52.481 -32.527 -16.809  0.00  0.00    +0.000 OA
ATOM     35  N   UNL     1      52.636 -34.723 -17.451  0.00  0.00    +0.000 N 
ATOM     36  C   UNL     1      55.257 -35.347 -14.552  0.00  0.00    +0.000 A 
ATOM     37  C   UNL     1      54.648 -35.494 -15.784  0.00  0.00    +0.000 A 
ATOM     38  C   UNL     1      54.689 -34.443 -16.688  0.00  0.00    +0.000 A 
ATOM     39  C   UNL     1      55.302 -33.240 -16.355  0.00  0.00    +0.000 A 
ATOM     40  C   UNL     1      55.906 -33.091 -15.114  0.00  0.00    +0.000 A 
ATOM     41  C   UNL     1      56.461 -34.019 -12.972  0.00  0.00    +0.000 C 
ATOM     42  C   UNL     1      55.385 -33.645 -12.172  0.00  0.00    +0.000 C 
ATOM     43  O   UNL     1      55.178 -32.471 -11.867  0.00  0.00    +0.000 OA
ATOM     44  C   UNL     1      55.890 -34.154 -14.222  0.00  0.00    +0.000 A 
ATOM     45  C   UNL     1      54.048 -34.598 -17.900  0.00  0.00    +0.000 C 
ATOM     46  H   UNL     1      54.669 -35.598 -12.086  0.00  0.00    +0.000 HD
ATOM     47  H   UNL     1      54.743 -33.575  -5.563  0.00  0.00    +0.000 HD
ATOM     48  H   UNL     1      52.370 -33.687  -5.654  0.00  0.00    +0.000 HD
ATOM     49  H   UNL     1      48.615 -36.226  -5.819  0.00  0.00    +0.000 HD
ATOM     50  H   UNL     1      48.006 -36.290 -10.361  0.00  0.00    +0.000 HD
ATOM     51  H   UNL     1      47.511 -32.831 -15.922  0.00  0.00    +0.000 HD
ATOM     52  H   UNL     1      52.158 -35.619 -17.552  0.00  0.00    +0.000 HD
ENDROOT
BRANCH   1  53
ATOM     53  N   UNL     1      56.059 -36.976  -7.124  0.00  0.00    +0.000 N 
ATOM     54  H   UNL     1      56.868 -36.983  -6.503  0.00  0.00    +0.000 HD
ATOM     55  H   UNL     1      55.460 -37.774  -6.912  0.00  0.00    +0.000 HD
ATOM     56  H   UNL     1      56.372 -37.032  -8.093  0.00  0.00    +0.000 HD
ENDBRANCH   1  53
BRANCH  18  57
ATOM     57  C   UNL     1      49.452 -38.005  -7.902  0.00  0.00    +0.000 C 
ATOM     58  C   UNL     1      49.350 -38.647  -9.300  0.00  0.00    +0.000 C 
ATOM     59  C   UNL     1      50.917 -38.065  -7.465  0.00  0.00    +0.000 C 
ATOM     60  C   UNL     1      48.618 -38.841  -6.917  0.00  0.00    +0.000 C 
ENDBRANCH  18  57
BRANCH  22  61
ATOM     61  C   UNL     1      45.333 -37.676  -9.858  0.00  0.00    +0.000 C 
ATOM     62  O   UNL     1      46.033 -38.673 -10.002  0.00  0.00    +0.000 OA
ATOM     63  N   UNL     1      44.077 -37.716  -9.361  0.00  0.00    +0.000 N 
ATOM     64  H   UNL     1      43.539 -36.851  -9.305  0.00  0.00    +0.000 HD
BRANCH  63  65
ATOM     65  C   UNL     1      43.458 -38.981  -8.894  0.00  0.00    +0.000 C 
BRANCH  65  66
ATOM     66  C   UNL     1      43.579 -39.036  -7.474  0.00  0.00    +0.000 A 
ATOM     67  C   UNL     1      44.722 -39.548  -6.870  0.00  0.00    +0.000 A 
ATOM     68  C   UNL     1      44.850 -39.587  -5.478  0.00  0.00    +0.000 A 
ATOM     69  C   UNL     1      43.834 -39.116  -4.640  0.00  0.00    +0.000 A 
ATOM     70  C   UNL     1      42.685 -38.602  -5.251  0.00  0.00    +0.000 A 
ATOM     71  C   UNL     1      42.563 -38.567  -6.644  0.00  0.00    +0.000 A 
BRANCH  69  72
ATOM     72  C   UNL     1      43.958 -39.151  -3.232  0.00  0.00    +0.000 C 
ATOM     73  N   UNL     1      45.158 -39.370  -2.678  0.00  0.00    +0.000 N 
ATOM     74  N   UNL     1      42.892 -38.882  -2.477  0.00  0.00    +0.000 NA
ATOM     75  H   UNL     1      45.266 -39.332  -1.665  0.00  0.00    +0.000 HD
ATOM     76  H   UNL     1      45.963 -39.575  -3.270  0.00  0.00    +0.000 HD
ATOM     77  H   UNL     1      42.000 -38.654  -2.917  0.00  0.00    +0.000 HD
ENDBRANCH  69  72
ENDBRANCH  65  66
ENDBRANCH  63  65
ENDBRANCH  22  61
BRANCH  10  78
ATOM     78  C   UNL     1      54.263 -32.983  -3.101  0.00  0.00    +0.000 C 
BRANCH  78  79
ATOM     79  C   UNL     1      53.716 -32.823  -1.660  0.00  0.00    +0.000 C 
BRANCH  79  80
ATOM     80  C   UNL     1      54.093 -31.419  -1.171  0.00  0.00    +0.000 C 
BRANCH  80  81
ATOM     81  N   UNL     1      53.514 -31.124   0.156  0.00  0.00    +0.000 N 
ATOM     82  C   UNL     1      52.325 -30.519   0.336  0.00  0.00    +0.000 C 
ATOM     83  N   UNL     1      51.877 -30.259   1.589  0.00  0.00    +0.000 N 
ATOM     84  N   UNL     1      51.590 -30.171  -0.741  0.00  0.00    +0.000 NA
ATOM     85  H   UNL     1      54.046 -31.394   0.983  0.00  0.00    +0.000 HD
ATOM     86  H   UNL     1      50.978 -29.797   1.723  0.00  0.00    +0.000 HD
ATOM     87  H   UNL     1      52.439 -30.526   2.397  0.00  0.00    +0.000 HD
ATOM     88  H   UNL     1      51.937 -30.367  -1.680  0.00  0.00    +0.000 HD
ENDBRANCH  80  81
ENDBRANCH  79  80
ENDBRANCH  78  79
ENDBRANCH  10  78
BRANCH  14  89
ATOM     89  C   UNL     1      49.586 -33.226  -4.767  0.00  0.00    +0.000 C 
BRANCH  89  90
ATOM     90  C   UNL     1      49.858 -32.705  -3.340  0.00  0.00    +0.000 C 
BRANCH  90  91
ATOM     91  C   UNL     1      49.214 -33.641  -2.309  0.00  0.00    +0.000 C 
BRANCH  91  92
ATOM     92  N   UNL     1      49.439 -33.156  -0.930  0.00  0.00    +0.000 N 
ATOM     93  C   UNL     1      50.232 -33.755  -0.017  0.00  0.00    +0.000 C 
ATOM     94  N   UNL     1      50.333 -33.248   1.226  0.00  0.00    +0.000 N 
ATOM     95  N   UNL     1      50.904 -34.874  -0.322  0.00  0.00    +0.000 NA
ATOM     96  H   UNL     1      48.957 -32.303  -0.647  0.00  0.00    +0.000 HD
ATOM     97  H   UNL     1      50.915 -33.715   1.921  0.00  0.00    +0.000 HD
ATOM     98  H   UNL     1      49.827 -32.397   1.472  0.00  0.00    +0.000 HD
ATOM     99  H   UNL     1      50.819 -35.282  -1.253  0.00  0.00    +0.000 HD
ENDBRANCH  91  92
ENDBRANCH  90  91
ENDBRANCH  89  90
ENDBRANCH  14  89
TORSDOF 14
