REMARK  Name = 6e4v_ligand
REMARK  12 active torsions:
REMARK  status: ('A' for Active; 'I' for Inactive)
REMARK    1  A    between atoms: C_7  and  C_24
REMARK    2  A    between atoms: C_19  and  C_20
REMARK    3  A    between atoms: C_20  and  C_21
REMARK    4  A    between atoms: C_21  and  C_22
REMARK    5  A    between atoms: C_22  and  O_23
REMARK    6  A    between atoms: C_35  and  N_50
REMARK    7  A    between atoms: C_40  and  C_41
REMARK    8  A    between atoms: C_42  and  C_43
REMARK    9  A    between atoms: C_42  and  C_49
REMARK   10  A    between atoms: C_43  and  C_44
REMARK   11  A    between atoms: C_44  and  O_45
REMARK   12  A    between atoms: C_51  and  C_53
REMARK                            x       y       z     vdW  Elec       q    Type
REMARK                         _______ _______ _______ _____ _____    ______ ____
ROOT
ATOM      1  C   UNL     1      35.321   2.105  25.166  0.00  0.00    +0.000 C 
ATOM      2  CA  UNL     1      34.971   2.590  26.511  0.00  0.00    +0.000 C 
ATOM      3  C   UNL     1      33.550   3.228  26.437  0.00  0.00    +0.000 C 
ATOM      4  C   UNL     1      33.157   4.254  27.464  0.00  0.00    +0.000 C 
ATOM      5  C   UNL     1      31.697   4.720  27.283  0.00  0.00    +0.000 C 
ATOM      6  N   UNL     1      31.456   5.398  26.060  0.00  0.00    +0.000 N 
ATOM      7  C   UNL     1      30.690   4.937  25.123  0.00  0.00    +0.000 C 
ATOM      8  O   UNL     1      34.725   1.183  24.723  0.00  0.00    +0.000 OA
ATOM      9  N   UNL     1      35.946   3.474  27.042  0.00  0.00    +0.000 N 
ATOM     10  O   UNL     1      32.003   6.487  25.780  0.00  0.00    +0.000 OA
ATOM     11  O   UNL     1      30.784   5.804  23.979  0.00  0.00    +0.000 OA
ATOM     12  C   UNL     1      36.884   4.054  26.364  0.00  0.00    +0.000 C 
ATOM     13  CA  UNL     1      36.981   3.880  24.921  0.00  0.00    +0.000 C 
ATOM     14  C   UNL     1      36.647   5.209  24.235  0.00  0.00    +0.000 C 
ATOM     15  C   UNL     1      36.183   5.158  22.798  0.00  0.00    +0.000 C 
ATOM     16  C   UNL     1      35.718   6.532  22.285  0.00  0.00    +0.000 C 
ATOM     17  O   UNL     1      37.708   4.706  26.900  0.00  0.00    +0.000 OA
ATOM     18  N   UNL     1      36.241   2.732  24.480  0.00  0.00    +0.000 N 
ATOM     19  N   UNL     1      34.308   6.764  22.503  0.00  0.00    +0.000 N 
ATOM     20  C   UNL     1      33.362   7.226  21.747  0.00  0.00    +0.000 C 
ATOM     21  C   UNL     1      33.769   7.882  20.518  0.00  0.00    +0.000 C 
ATOM     22  C   UNL     1      33.198   7.810  19.369  0.00  0.00    +0.000 C 
ATOM     23  C   UNL     1      33.819   8.588  18.274  0.00  0.00    +0.000 C 
ATOM     24  C   UNL     1      33.365  10.054  18.174  0.00  0.00    +0.000 C 
ATOM     25  O   UNL     1      33.943  10.899  19.121  0.00  0.00    +0.000 OA
ATOM     26  O   UNL     1      33.785   6.577  23.583  0.00  0.00    +0.000 OA
ATOM     27  O   UNL     1      32.074   7.087  22.367  0.00  0.00    +0.000 OA
ATOM     28  C   UNL     1      33.226  11.928  19.837  0.00  0.00    +0.000 C 
ATOM     29  C   UNL     1      33.520  12.295  21.246  0.00  0.00    +0.000 C 
ATOM     30  C   UNL     1      32.663  11.584  22.241  0.00  0.00    +0.000 C 
ATOM     31  C   UNL     1      32.918  12.070  23.610  0.00  0.00    +0.000 C 
ATOM     32  C   UNL     1      32.017  11.433  24.636  0.00  0.00    +0.000 C 
ATOM     33  N   UNL     1      31.593  10.053  24.431  0.00  0.00    +0.000 N 
ATOM     34  C   UNL     1      30.422   9.653  23.994  0.00  0.00    +0.000 C 
ATOM     35  O   UNL     1      32.443  12.548  19.218  0.00  0.00    +0.000 OA
ATOM     36  O   UNL     1      32.329   9.031  24.698  0.00  0.00    +0.000 OA
ATOM     37  O   UNL     1      30.531   8.264  23.646  0.00  0.00    +0.000 OA
ATOM     38 FE   UNL     1      32.062   7.231  24.124  0.00  0.00    +0.000 Fe
ATOM     39  H   UNL     1      35.904   3.669  28.042  0.00  0.00    +0.000 HD
ATOM     40  H   UNL     1      36.451   2.373  23.549  0.00  0.00    +0.000 HD
ENDROOT
BRANCH  29  41
ATOM     41  N   UNL     1      33.424  13.717  21.455  0.00  0.00    +0.000 N 
ATOM     42  C   UNL     1      34.377  14.590  21.209  0.00  0.00    +0.000 C 
ATOM     43  O   UNL     1      35.273  14.400  20.434  0.00  0.00    +0.000 OA
ATOM     44  C   UNL     1      34.261  15.889  21.928  0.00  0.00    +0.000 C 
ATOM     45  H   UNL     1      32.544  14.077  21.824  0.00  0.00    +0.000 HD
ENDBRANCH  29  41
BRANCH   7  48
ATOM     46  C   UNL     1      29.244   3.254  23.043  0.00  0.00    +0.000 C 
ATOM     47  C   UNL     1      29.349   2.879  24.470  0.00  0.00    +0.000 C 
ATOM     48  C   UNL     1      29.954   3.639  25.383  0.00  0.00    +0.000 C 
BRANCH  47  49
ATOM     49  C   UNL     1      28.650   1.590  24.848  0.00  0.00    +0.000 C 
BRANCH  49  50
ATOM     50  C   UNL     1      27.233   1.713  24.298  0.00  0.00    +0.000 C 
BRANCH  50  51
ATOM     51  O   UNL     1      26.496   2.445  25.235  0.00  0.00    +0.000 OA
ATOM     52  H   UNL     1      25.593   2.545  24.923  0.00  0.00    +0.000 HD
ENDBRANCH  50  51
ENDBRANCH  49  50
ENDBRANCH  47  49
ENDBRANCH   7  48
BRANCH  34  53
ATOM     53  C   UNL     1      29.235  10.564  23.920  0.00  0.00    +0.000 C 
ATOM     54  C   UNL     1      28.766  11.045  22.792  0.00  0.00    +0.000 C 
ATOM     55  C   UNL     1      29.388  10.615  21.526  0.00  0.00    +0.000 C 
BRANCH  54  56
ATOM     56  C   UNL     1      27.535  11.964  22.733  0.00  0.00    +0.000 C 
BRANCH  56  57
ATOM     57  C   UNL     1      27.787  13.361  23.202  0.00  0.00    +0.000 C 
BRANCH  57  58
ATOM     58  O   UNL     1      29.107  13.766  22.893  0.00  0.00    +0.000 OA
ATOM     59  H   UNL     1      29.246  14.664  23.203  0.00  0.00    +0.000 HD
ENDBRANCH  57  58
ENDBRANCH  56  57
ENDBRANCH  54  56
ENDBRANCH  34  53
TORSDOF 9
