REMARK  Name = 6ovz_ligand
REMARK  5 active torsions:
REMARK  status: ('A' for Active; 'I' for Inactive)
REMARK    1  A    between atoms: C_5  and  C_7
REMARK    2  A    between atoms: C_7  and  O_11
REMARK    3  A    between atoms: C_8  and  O_11
REMARK    4  A    between atoms: C_9  and  O_13
REMARK    5  A    between atoms: N_10  and  O_13
REMARK                            x       y       z     vdW  Elec       q    Type
REMARK                         _______ _______ _______ _____ _____    ______ ____
ROOT
ATOM      1  O   UNL     1       6.059 -11.135 -31.094  0.00  0.00    +0.000 OA
ENDROOT
BRANCH   1   2
ATOM      2  C   UNL     1       7.378 -11.441 -31.256  0.00  0.00    +0.000 C 
ATOM      3  N   UNL     1       8.267 -10.445 -31.390  0.00  0.00    +0.000 N 
ATOM      4  O   UNL     1       7.748 -12.617 -31.253  0.00  0.00    +0.000 OA
ATOM      5  H   UNL     1       7.964  -9.471 -31.365  0.00  0.00    +0.000 HD
BRANCH   3   6
ATOM      6  O   UNL     1       9.682 -10.782 -31.573  0.00  0.00    +0.000 OA
BRANCH   6   7
ATOM      7  C   UNL     1      10.365  -9.700 -31.129  0.00  0.00    +0.000 C 
ATOM      8  O   UNL     1      11.599  -9.674 -31.161  0.00  0.00    +0.000 OA
ENDBRANCH   6   7
ENDBRANCH   3   6
ENDBRANCH   1   2
BRANCH   1   9
ATOM      9  C   UNL     1       5.201 -11.924 -31.937  0.00  0.00    +0.000 C 
BRANCH   9  14
ATOM     10  C   UNL     1       1.525 -11.678 -32.006  0.00  0.00    +0.000 A 
ATOM     11  C   UNL     1       1.269 -11.254 -30.702  0.00  0.00    +0.000 A 
ATOM     12  C   UNL     1       2.318 -11.042 -29.811  0.00  0.00    +0.000 A 
ATOM     13  C   UNL     1       3.623 -11.272 -30.234  0.00  0.00    +0.000 A 
ATOM     14  C   UNL     1       3.883 -11.703 -31.539  0.00  0.00    +0.000 A 
ATOM     15  C   UNL     1       2.835 -11.907 -32.430  0.00  0.00    +0.000 A 
ENDBRANCH   9  14
ENDBRANCH   1   9
TORSDOF 5
