REMARK  Name = 6i62_ligand
REMARK  5 active torsions:
REMARK  status: ('A' for Active; 'I' for Inactive)
REMARK    1  A    between atoms: C_3  and  O_4
REMARK    2  A    between atoms: C_7  and  C_8
REMARK    3  A    between atoms: C_8  and  C_9
REMARK    4  A    between atoms: C_8  and  C_13
REMARK    5  A    between atoms: C_16  and  O_17
REMARK                            x       y       z     vdW  Elec       q    Type
REMARK                         _______ _______ _______ _____ _____    ______ ____
ROOT
ATOM      1  C   UNL     1       3.135 -15.849   6.421  0.00  0.00    +0.000 C 
ENDROOT
BRANCH   1   7
ATOM      2  C   UNL     1       3.195 -17.772   4.905  0.00  0.00    +0.000 A 
ATOM      3  C   UNL     1       3.098 -18.220   3.594  0.00  0.00    +0.000 A 
ATOM      4  C   UNL     1       2.868 -17.334   2.548  0.00  0.00    +0.000 A 
ATOM      5  C   UNL     1       2.727 -15.977   2.795  0.00  0.00    +0.000 A 
ATOM      6  C   UNL     1       2.822 -15.529   4.107  0.00  0.00    +0.000 A 
ATOM      7  C   UNL     1       3.055 -16.419   5.152  0.00  0.00    +0.000 A 
BRANCH   4   8
ATOM      8  O   UNL     1       2.779 -17.814   1.276  0.00  0.00    +0.000 OA
ATOM      9  H   UNL     1       2.620 -17.086   0.671  0.00  0.00    +0.000 HD
ENDBRANCH   4   8
ENDBRANCH   1   7
BRANCH   1  10
ATOM     10  C   UNL     1       4.430 -15.902   6.975  0.00  0.00    +0.000 A 
ATOM     11  C   UNL     1       4.948 -16.914   7.792  0.00  0.00    +0.000 A 
ATOM     12  C   UNL     1       6.256 -16.811   8.291  0.00  0.00    +0.000 A 
ATOM     13  C   UNL     1       7.014 -15.681   7.964  0.00  0.00    +0.000 A 
ATOM     14  C   UNL     1       6.478 -14.700   7.159  0.00  0.00    +0.000 A 
ATOM     15  C   UNL     1       5.201 -14.802   6.675  0.00  0.00    +0.000 A 
BRANCH  13  16
ATOM     16  O   UNL     1       8.297 -15.491   8.388  0.00  0.00    +0.000 OA
ATOM     17  H   UNL     1       8.624 -14.655   8.049  0.00  0.00    +0.000 HD
ENDBRANCH  13  16
ENDBRANCH   1  10
BRANCH   1  18
ATOM     18  C   UNL     1       2.052 -16.248   7.429  0.00  0.00    +0.000 C 
ATOM     19 CL   UNL     1       1.995 -17.962   7.977  0.00  0.00    +0.000 Cl
ATOM     20 CL   UNL     1       2.170 -15.175   8.742  0.00  0.00    +0.000 Cl
ATOM     21 CL   UNL     1       0.547 -15.951   6.621  0.00  0.00    +0.000 Cl
ENDBRANCH   1  18
TORSDOF 5
