REMARK  Name = 6iby_ligand
REMARK  7 active torsions:
REMARK  status: ('A' for Active; 'I' for Inactive)
REMARK    1  A    between atoms: N_3  and  C_4
REMARK    2  A    between atoms: C_6  and  N_7
REMARK    3  A    between atoms: C_8  and  C_10
REMARK    4  A    between atoms: C_15  and  N_16
REMARK    5  A    between atoms: N_16  and  C_17
REMARK    6  A    between atoms: C_26  and  C_27
REMARK    7  A    between atoms: N_30  and  C_31
REMARK                            x       y       z     vdW  Elec       q    Type
REMARK                         _______ _______ _______ _____ _____    ______ ____
ROOT
ATOM      1  C   UNL     1     142.321 -40.995 265.487  0.00  0.00    +0.000 A 
ATOM      2  C   UNL     1     142.594 -39.779 266.143  0.00  0.00    +0.000 A 
ATOM      3  C   UNL     1     143.374 -41.894 265.310  0.00  0.00    +0.000 A 
ATOM      4  C   UNL     1     144.657 -41.530 265.715  0.00  0.00    +0.000 A 
ATOM      5  N   UNL     1     145.666 -42.394 265.505  0.00  0.00    +0.000 NA
ATOM      6  C   UNL     1     146.987 -42.126 265.858  0.00  0.00    +0.000 A 
ATOM      7  C   UNL     1     147.252 -40.935 266.501  0.00  0.00    +0.000 A 
ATOM      8  N   UNL     1     146.196 -40.046 266.729  0.00  0.00    +0.000 NA
ATOM      9  C   UNL     1     144.927 -40.319 266.341  0.00  0.00    +0.000 A 
ATOM     10  C   UNL     1     143.886 -39.404 266.585  0.00  0.00    +0.000 A 
ENDROOT
BRANCH  10  11
ATOM     11  C   UNL     1     144.109 -38.121 267.203  0.00  0.00    +0.000 A 
ATOM     12  C   UNL     1     143.447 -37.687 268.356  0.00  0.00    +0.000 A 
ATOM     13  C   UNL     1     143.688 -36.477 268.859  0.00  0.00    +0.000 A 
ATOM     14  N   UNL     1     143.184 -35.844 269.907  0.00  0.00    +0.000 N 
ATOM     15  C   UNL     1     142.166 -36.327 270.802  0.00  0.00    +0.000 C 
ATOM     16  C   UNL     1     143.728 -34.642 270.016  0.00  0.00    +0.000 A 
ATOM     17  C   UNL     1     144.614 -34.509 269.026  0.00  0.00    +0.000 A 
ATOM     18  C   UNL     1     144.578 -35.636 268.293  0.00  0.00    +0.000 A 
ATOM     19  C   UNL     1     145.269 -35.992 267.211  0.00  0.00    +0.000 A 
ATOM     20  C   UNL     1     145.030 -37.230 266.648  0.00  0.00    +0.000 A 
ENDBRANCH  10  11
BRANCH   1  21
ATOM     21  N   UNL     1     141.035 -41.286 265.185  0.00  0.00    +0.000 N 
ATOM     22  H   UNL     1     140.335 -41.115 265.907  0.00  0.00    +0.000 HD
BRANCH  21  28
ATOM     23  C   UNL     1     139.233 -42.060 263.922  0.00  0.00    +0.000 A 
ATOM     24  C   UNL     1     138.788 -42.537 262.694  0.00  0.00    +0.000 A 
ATOM     25  C   UNL     1     139.626 -42.731 261.594  0.00  0.00    +0.000 A 
ATOM     26  N   UNL     1     140.971 -42.451 261.697  0.00  0.00    +0.000 NA
ATOM     27  C   UNL     1     141.434 -41.974 262.897  0.00  0.00    +0.000 A 
ATOM     28  C   UNL     1     140.601 -41.784 264.007  0.00  0.00    +0.000 A 
BRANCH  23  30
ATOM     29  N   UNL     1     137.203 -42.618 265.033  0.00  0.00    +0.000 N 
ATOM     30  C   UNL     1     138.324 -41.882 265.010  0.00  0.00    +0.000 C 
ATOM     31  O   UNL     1     138.580 -41.155 265.956  0.00  0.00    +0.000 OA
ATOM     32  H   UNL     1     137.037 -43.273 264.268  0.00  0.00    +0.000 HD
BRANCH  29  38
ATOM     33  C   UNL     1     134.809 -42.650 265.488  0.00  0.00    +0.000 C 
ATOM     34  C   UNL     1     134.266 -43.993 265.960  0.00  0.00    +0.000 C 
ATOM     35  N   UNL     1     135.479 -44.730 266.309  0.00  0.00    +0.000 N 
ATOM     36  C   UNL     1     135.244 -45.961 267.105  0.00  0.00    +0.000 C 
ATOM     37  C   UNL     1     136.344 -43.730 266.969  0.00  0.00    +0.000 C 
ATOM     38  C   UNL     1     136.216 -42.530 266.089  0.00  0.00    +0.000 C 
ATOM     39  H   UNL     1     135.928 -45.122 265.481  0.00  0.00    +0.000 HD
ENDBRANCH  29  38
ENDBRANCH  23  30
ENDBRANCH  21  28
ENDBRANCH   1  21
TORSDOF 5
