REMARK  Name = 6eeb_ligand
REMARK  2 active torsions:
REMARK  status: ('A' for Active; 'I' for Inactive)
REMARK    1  A    between atoms: C_16  and  C_17
REMARK    2  A    between atoms: C_16  and  C_18
REMARK                            x       y       z     vdW  Elec       q    Type
REMARK                         _______ _______ _______ _____ _____    ______ ____
ROOT
ATOM      1  C   UNL     1       3.713  62.809 109.808  0.00  0.00    +0.000 A 
ATOM      2  C   UNL     1       2.500  62.585 110.493  0.00  0.00    +0.000 A 
ATOM      3  C   UNL     1       2.482  61.698 111.607  0.00  0.00    +0.000 A 
ATOM      4  C   UNL     1       1.935  60.409 113.407  0.00  0.00    +0.000 A 
ATOM      5  C   UNL     1       3.337  60.241 113.140  0.00  0.00    +0.000 A 
ATOM      6  C   UNL     1       4.257  59.300 114.033  0.00  0.00    +0.000 C 
ATOM      7  C   UNL     1       3.745  59.351 115.482  0.00  0.00    +0.000 C 
ATOM      8  C   UNL     1       2.114  58.885 115.575  0.00  0.00    +0.000 C 
ATOM      9  C   UNL     1       1.642  58.970 116.898  0.00  0.00    +0.000 C 
ATOM     10  C   UNL     1       2.657  59.563 117.812  0.00  0.00    +0.000 C 
ATOM     11  C   UNL     1       3.939  58.612 117.636  0.00  0.00    +0.000 C 
ATOM     12  C   UNL     1       2.267  59.775 119.228  0.00  0.00    +0.000 C 
ATOM     13  C   UNL     1       2.911  61.012 119.640  0.00  0.00    +0.000 C 
ATOM     14  C   UNL     1       3.741  61.538 118.343  0.00  0.00    +0.000 C 
ATOM     15  C   UNL     1       3.996  60.756 116.179  0.00  0.00    +0.000 C 
ATOM     16  C   UNL     1       1.181  59.676 114.574  0.00  0.00    +0.000 C 
ATOM     17  C   UNL     1       0.192  58.651 113.935  0.00  0.00    +0.000 C 
ATOM     18  C   UNL     1       0.342  60.752 115.336  0.00  0.00    +0.000 C 
ATOM     19  C   UNL     1       3.678  61.063 112.006  0.00  0.00    +0.000 A 
ATOM     20  C   UNL     1       4.898  61.295 111.312  0.00  0.00    +0.000 A 
ATOM     21  C   UNL     1       4.907  62.171 110.211  0.00  0.00    +0.000 A 
ATOM     22  N   UNL     1       1.438  61.275 112.478  0.00  0.00    +0.000 NA
ATOM     23  N   UNL     1       4.381  58.496 116.317  0.00  0.00    +0.000 N 
ATOM     24  N   UNL     1       3.175  60.905 117.288  0.00  0.00    +0.000 N 
ATOM     25  O   UNL     1       4.474  58.061 118.550  0.00  0.00    +0.000 OA
ATOM     26 CL   UNL     1       3.803  63.907 108.405  0.00  0.00    +0.000 Cl
ATOM     27 CL   UNL     1       6.406  62.509 109.295  0.00  0.00    +0.000 Cl
ATOM     28  H   UNL     1       5.102  57.841 116.016  0.00  0.00    +0.000 HD
ATOM     29  H   UNL     1       2.420  61.486 116.925  0.00  0.00    +0.000 HD
ENDROOT
TORSDOF 0
