REMARK  Name = 6qtm_ligand
REMARK  42 active torsions:
REMARK  status: ('A' for Active; 'I' for Inactive)
REMARK    1  A    between atoms: N_1  and  CA_2
REMARK    2  A    between atoms: CA_2  and  C_3
REMARK    3  A    between atoms: CA_2  and  CB_5
REMARK    4  A    between atoms: CB_5  and  OG_6
REMARK    5  A    between atoms: N_7  and  CA_8
REMARK    6  A    between atoms: CA_8  and  C_9
REMARK    7  A    between atoms: CA_8  and  CB_11
REMARK    8  A    between atoms: CB_11  and  CG_12
REMARK    9  A    between atoms: CG_12  and  CD1_13
REMARK   10  A    between atoms: CG_12  and  CD2_14
REMARK   11  A    between atoms: N_15  and  CA_16
REMARK   12  A    between atoms: CA_16  and  C_17
REMARK   13  A    between atoms: CA_16  and  CB_19
REMARK   14  A    between atoms: CB_19  and  CG_20
REMARK   15  A    between atoms: CG_20  and  OD1_21
REMARK   16  A    between atoms: N_23  and  CA_24
REMARK   17  A    between atoms: CA_24  and  C_25
REMARK   18  A    between atoms: CA_24  and  CB_27
REMARK   19  A    between atoms: CB_27  and  OG_28
REMARK   20  A    between atoms: N_29  and  C_30
REMARK   21  A    between atoms: C_30  and  C_31
REMARK   22  A    between atoms: C_30  and  C_33
REMARK   23  A    between atoms: C_31  and  O_32
REMARK   24  A    between atoms: O_32  and  P_35
REMARK   25  A    between atoms: P_35  and  O_37
REMARK   26  A    between atoms: P_35  and  O_38
REMARK   27  A    between atoms: CA_40  and  C_41
REMARK   28  A    between atoms: CA_47  and  C_48
REMARK   29  A    between atoms: N_53  and  CA_54
REMARK   30  A    between atoms: CA_54  and  C_55
REMARK   31  A    between atoms: CA_54  and  CB_57
REMARK   32  A    between atoms: CB_57  and  CG_58
REMARK   33  A    between atoms: N_61  and  CA_62
REMARK   34  A    between atoms: CA_62  and  C_63
REMARK   35  A    between atoms: CA_62  and  CB_65
REMARK   36  A    between atoms: CB_65  and  OG1_66
REMARK   37  A    between atoms: CB_65  and  CG2_67
REMARK   38  A    between atoms: N_68  and  C_69
REMARK   39  A    between atoms: C_69  and  C_70
REMARK   40  A    between atoms: C_69  and  C_72
REMARK   41  A    between atoms: C_70  and  O_71
REMARK   42  A    between atoms: C_72  and  O_73
REMARK                            x       y       z     vdW  Elec       q    Type
REMARK                         _______ _______ _______ _____ _____    ______ ____
ROOT
ATOM      1  C   UNK A   5      16.738  40.012  10.915  0.00  0.00    +0.000 C 
ENDROOT
BRANCH   1   2
ATOM      2  C   UNK A   5      17.114  39.567  12.345  0.00  0.00    +0.000 C 
ATOM      3  O   UNK A   5      16.485  40.006  13.314  0.00  0.00    +0.000 OA
ATOM      4  N   PRO A   6      18.148  38.722  12.512  0.00  0.00    +0.000 N 
ATOM      5  CA  PRO A   6      18.523  38.311  13.871  0.00  0.00    +0.000 C 
ATOM      6  CB  PRO A   6      19.346  37.035  13.645  0.00  0.00    +0.000 C 
ATOM      7  CG  PRO A   6      19.406  36.827  12.161  0.00  0.00    +0.000 C 
ATOM      8  CD  PRO A   6      19.026  38.103  11.505  0.00  0.00    +0.000 C 
BRANCH   5   9
ATOM      9  C   PRO A   6      19.327  39.402  14.591  0.00  0.00    +0.000 C 
ATOM     10  O   PRO A   6      19.862  40.279  13.915  0.00  0.00    +0.000 OA
ATOM     11  N   PRO A   7      19.453  39.398  15.937  0.00  0.00    +0.000 N 
ATOM     12  CA  PRO A   7      20.263  40.437  16.587  0.00  0.00    +0.000 C 
ATOM     13  CB  PRO A   7      20.018  40.200  18.083  0.00  0.00    +0.000 C 
ATOM     14  CG  PRO A   7      18.838  39.286  18.166  0.00  0.00    +0.000 C 
ATOM     15  CD  PRO A   7      18.886  38.465  16.927  0.00  0.00    +0.000 C 
BRANCH  12  16
ATOM     16  C   PRO A   7      21.749  40.382  16.179  0.00  0.00    +0.000 C 
ATOM     17  O   PRO A   7      22.481  39.453  16.541  0.00  0.00    +0.000 OA
ATOM     18  N   ASN A   8      22.156  41.333  15.318  0.00  0.00    +0.000 N 
ATOM     19  H   ASN A   8      21.472  42.015  14.991  0.00  0.00    +0.000 HD
BRANCH  18  20
ATOM     20  CA  ASN A   8      23.533  41.438  14.826  0.00  0.00    +0.000 C 
BRANCH  20  21
ATOM     21  C   ASN A   8      24.364  42.057  15.952  0.00  0.00    +0.000 C 
ATOM     22  O   ASN A   8      24.071  43.181  16.374  0.00  0.00    +0.000 OA
ATOM     23  N   THR A   9      25.323  41.290  16.520  0.00  0.00    +0.000 N 
ATOM     24  H   THR A   9      25.486  40.353  16.151  0.00  0.00    +0.000 HD
BRANCH  23  25
ATOM     25  CA  THR A   9      26.144  41.760  17.657  0.00  0.00    +0.000 C 
BRANCH  25  26
ATOM     26  C   THR A   9      27.674  41.550  17.428  0.00  0.00    +0.000 C 
ATOM     27  O   THR A   9      28.326  40.769  18.136  0.00  0.00    +0.000 OA
ATOM     28  N   UNK A  10      28.230  42.302  16.434  0.00  0.00    +0.000 N 
ATOM     29  H   UNK A  10      27.598  42.915  15.918  0.00  0.00    +0.000 HD
BRANCH  28  30
ATOM     30  C   UNK A  10      29.643  42.323  16.027  0.00  0.00    +0.000 C 
BRANCH  30  31
ATOM     31  C   UNK A  10      30.037  43.702  15.435  0.00  0.00    +0.000 C 
ATOM     32  O   UNK A  10      30.326  43.842  14.236  0.00  0.00    +0.000 OA
BRANCH  31  33
ATOM     33  O   UNK A  10      30.081  44.727  16.134  0.00  0.00    +0.000 OA
ATOM     34  H   UNK A  10      29.841  44.508  17.037  0.00  0.00    +0.000 HD
ENDBRANCH  31  33
ENDBRANCH  30  31
BRANCH  30  35
ATOM     35  C   UNK A  10      29.922  41.213  15.014  0.00  0.00    +0.000 C 
BRANCH  35  36
ATOM     36  O   UNK A  10      29.776  39.929  15.599  0.00  0.00    +0.000 OA
ATOM     37  H   UNK A  10      29.957  39.255  14.939  0.00  0.00    +0.000 HD
ENDBRANCH  35  36
ENDBRANCH  30  35
ENDBRANCH  28  30
ENDBRANCH  25  26
BRANCH  25  38
ATOM     38  CB  THR A   9      25.644  41.176  18.994  0.00  0.00    +0.000 C 
ATOM     39  CG2 THR A   9      24.398  41.888  19.514  0.00  0.00    +0.000 C 
BRANCH  38  40
ATOM     40  OG1 THR A   9      25.409  39.771  18.852  0.00  0.00    +0.000 OA
ATOM     41  HG1 THR A   9      25.098  39.414  19.687  0.00  0.00    +0.000 HD
ENDBRANCH  38  40
ENDBRANCH  25  38
ENDBRANCH  23  25
ENDBRANCH  20  21
BRANCH  20  42
ATOM     42  CB  ASN A   8      23.597  42.278  13.525  0.00  0.00    +0.000 C 
BRANCH  42  43
ATOM     43  CG  ASN A   8      22.747  41.773  12.352  0.00  0.00    +0.000 C 
ATOM     44  OD1 ASN A   8      22.563  40.566  12.124  0.00  0.00    +0.000 OA
ATOM     45  ND2 ASN A   8      22.244  42.694  11.536  0.00  0.00    +0.000 N 
ATOM     46 HD21 ASN A   8      21.704  42.411  10.718  0.00  0.00    +0.000 HD
ATOM     47 HD22 ASN A   8      22.398  43.684  11.728  0.00  0.00    +0.000 HD
ENDBRANCH  42  43
ENDBRANCH  20  42
ENDBRANCH  18  20
ENDBRANCH  12  16
ENDBRANCH   5   9
ENDBRANCH   1   2
BRANCH   1  50
ATOM     48  C   SER A   4      14.416  39.438  10.254  0.00  0.00    +0.000 C 
ATOM     49  O   SER A   4      14.715  38.355   9.746  0.00  0.00    +0.000 OA
ATOM     50  N   UNK A   5      15.310  40.271  10.800  0.00  0.00    +0.000 N 
ATOM     51  H   UNK A   5      14.963  41.158  11.165  0.00  0.00    +0.000 HD
BRANCH  48  52
ATOM     52  CA  SER A   4      12.976  39.938  10.234  0.00  0.00    +0.000 C 
BRANCH  52  55
ATOM     53  C   ASP A   3      12.615  40.682  12.594  0.00  0.00    +0.000 C 
ATOM     54  O   ASP A   3      12.580  39.542  13.050  0.00  0.00    +0.000 OA
ATOM     55  N   SER A   4      12.779  40.953  11.283  0.00  0.00    +0.000 N 
ATOM     56  H   SER A   4      12.766  41.932  10.997  0.00  0.00    +0.000 HD
BRANCH  53  57
ATOM     57  CA  ASP A   3      12.479  41.873  13.529  0.00  0.00    +0.000 C 
BRANCH  57  60
ATOM     58  C   LEU A   2      10.159  41.664  14.318  0.00  0.00    +0.000 C 
ATOM     59  O   LEU A   2       9.688  41.970  13.223  0.00  0.00    +0.000 OA
ATOM     60  N   ASP A   3      11.470  41.608  14.549  0.00  0.00    +0.000 N 
ATOM     61  H   ASP A   3      11.785  41.367  15.489  0.00  0.00    +0.000 HD
BRANCH  58  62
ATOM     62  CA  LEU A   2       9.241  41.414  15.522  0.00  0.00    +0.000 C 
BRANCH  62  65
ATOM     63  C   SER A   1       7.828  43.376  16.108  0.00  0.00    +0.000 C 
ATOM     64  O   SER A   1       8.642  43.813  16.940  0.00  0.00    +0.000 OA
ATOM     65  N   LEU A   2       8.033  42.235  15.404  0.00  0.00    +0.000 N 
ATOM     66  H   LEU A   2       7.306  41.931  14.756  0.00  0.00    +0.000 HD
BRANCH  63  67
ATOM     67  CA  SER A   1       6.516  44.153  15.826  0.00  0.00    +0.000 C 
BRANCH  67  68
ATOM     68  N   SER A   1       5.780  43.610  14.684  0.00  0.00    +0.000 N 
ATOM     69  H1  SER A   1       6.393  43.579  13.870  0.00  0.00    +0.000 HD
ATOM     70  H2  SER A   1       5.458  42.668  14.905  0.00  0.00    +0.000 HD
ATOM     71  H3  SER A   1       4.977  44.206  14.484  0.00  0.00    +0.000 HD
ENDBRANCH  67  68
BRANCH  67  72
ATOM     72  CB  SER A   1       5.626  44.215  17.068  0.00  0.00    +0.000 C 
BRANCH  72  73
ATOM     73  OG  SER A   1       6.160  45.084  18.055  0.00  0.00    +0.000 OA
ATOM     74  H   SER A   1       5.577  45.097  18.817  0.00  0.00    +0.000 HD
ENDBRANCH  72  73
ENDBRANCH  67  72
ENDBRANCH  63  67
ENDBRANCH  62  65
BRANCH  62  75
ATOM     75  CB  LEU A   2       8.899  39.915  15.710  0.00  0.00    +0.000 C 
BRANCH  75  76
ATOM     76  CG  LEU A   2      10.028  38.906  15.988  0.00  0.00    +0.000 C 
ATOM     77  CD1 LEU A   2      10.888  39.308  17.162  0.00  0.00    +0.000 C 
ATOM     78  CD2 LEU A   2       9.467  37.549  16.269  0.00  0.00    +0.000 C 
ENDBRANCH  75  76
ENDBRANCH  62  75
ENDBRANCH  58  62
ENDBRANCH  57  60
BRANCH  57  79
ATOM     79  CB  ASP A   3      13.821  42.190  14.217  0.00  0.00    +0.000 C 
BRANCH  79  80
ATOM     80  CG  ASP A   3      14.964  42.676  13.352  0.00  0.00    +0.000 C 
ATOM     81  OD2 ASP A   3      16.113  42.731  13.867  0.00  0.00    +0.000 OA
BRANCH  80  82
ATOM     82  OD1 ASP A   3      14.718  43.017  12.160  0.00  0.00    +0.000 OA
ATOM     83  HD1 ASP A   3      13.783  42.894  11.980  0.00  0.00    +0.000 HD
ENDBRANCH  80  82
ENDBRANCH  79  80
ENDBRANCH  57  79
ENDBRANCH  53  57
ENDBRANCH  52  55
BRANCH  52  84
ATOM     84  CB  SER A   4      12.690  40.536   8.860  0.00  0.00    +0.000 C 
BRANCH  84  85
ATOM     85  OG  SER A   4      11.330  40.906   8.732  0.00  0.00    +0.000 OA
ATOM     86  H   SER A   4      11.181  41.278   7.859  0.00  0.00    +0.000 HD
ENDBRANCH  84  85
ENDBRANCH  52  84
ENDBRANCH  48  52
ENDBRANCH   1  50
BRANCH   1  87
ATOM     87  C   UNK A   5      17.365  41.376  10.607  0.00  0.00    +0.000 C 
BRANCH  87  88
ATOM     88  O   UNK A   5      18.199  41.321   9.460  0.00  0.00    +0.000 OA
BRANCH  88  89
ATOM     89  P   UNK A   5      18.013  42.671   8.700  0.00  0.00    +0.000 P 
ATOM     90  O   UNK A   5      18.723  42.346   7.419  0.00  0.00    +0.000 OA
BRANCH  89  91
ATOM     91  O   UNK A   5      16.558  43.147   8.329  0.00  0.00    +0.000 OA
ATOM     92  H   UNK A   5      16.078  43.363   9.132  0.00  0.00    +0.000 HD
ENDBRANCH  89  91
BRANCH  89  93
ATOM     93  O   UNK A   5      18.749  43.801   9.469  0.00  0.00    +0.000 OA
ATOM     94  H   UNK A   5      18.278  43.992  10.283  0.00  0.00    +0.000 HD
ENDBRANCH  89  93
ENDBRANCH  88  89
ENDBRANCH  87  88
ENDBRANCH   1  87
TORSDOF 39
