REMARK  Name = 6rtn_ligand
REMARK  9 active torsions:
REMARK  status: ('A' for Active; 'I' for Inactive)
REMARK    1  A    between atoms: B_1  and  O_24
REMARK    2  A    between atoms: C_3  and  C_4
REMARK    3  A    between atoms: C_10  and  N_21
REMARK    4  A    between atoms: C_11  and  C_12
REMARK    5  A    between atoms: C_12  and  C_13
REMARK    6  A    between atoms: C_16  and  N_22
REMARK    7  A    between atoms: C_17  and  C_18
REMARK    8  A    between atoms: C_17  and  N_22
REMARK    9  A    between atoms: C_18  and  N_23
REMARK                            x       y       z     vdW  Elec       q    Type
REMARK                         _______ _______ _______ _____ _____    ______ ____
ROOT
ATOM      1  C   UNL     1      21.271 -18.075  -0.394  0.00  0.00    +0.000 C 
ATOM      2  N   UNL     1      20.872 -16.648  -0.242  0.00  0.00    +0.000 N 
ATOM      3  O   UNL     1      20.938 -18.878   0.423  0.00  0.00    +0.000 OA
ATOM      4  H   UNL     1      21.145 -15.982  -0.936  0.00  0.00    +0.000 HD
ENDROOT
BRANCH   2  13
ATOM      5  B   UNL     1      19.558 -14.718   0.659  0.00  0.00    +0.000 B 
ATOM      6  C   UNL     1      21.668 -13.959   1.572  0.00  0.00    +0.000 A 
ATOM      7  C   UNL     1      22.578 -12.931   1.445  0.00  0.00    +0.000 A 
ATOM      8  C   UNL     1      23.933 -13.166   1.733  0.00  0.00    +0.000 A 
ATOM      9  C   UNL     1      24.354 -14.444   2.157  0.00  0.00    +0.000 A 
ATOM     10  C   UNL     1      23.424 -15.483   2.295  0.00  0.00    +0.000 A 
ATOM     11  C   UNL     1      22.091 -15.238   2.013  0.00  0.00    +0.000 A 
ATOM     12  C   UNL     1      20.990 -16.338   2.126  0.00  0.00    +0.000 C 
ATOM     13  C   UNL     1      20.068 -16.199   0.935  0.00  0.00    +0.000 C 
ATOM     14  O   UNL     1      20.246 -13.719   1.276  0.00  0.00    +0.000 OA
ATOM     15  H   UNL     1      19.964 -14.307   0.585  0.00  0.00    +0.000 HD
BRANCH   7  16
ATOM     16  C   UNL     1      22.074 -11.558   0.981  0.00  0.00    +0.000 C 
ATOM     17  O   UNL     1      22.104 -11.251  -0.243  0.00  0.00    +0.000 OA
ATOM     18  O   UNL     1      21.616 -10.733   1.803  0.00  0.00    +0.000 OA
ENDBRANCH   7  16
BRANCH   5  19
ATOM     19  O   UNL     1      19.605 -14.506  -0.696  0.00  0.00    +0.000 OA
ATOM     20  H   UNL     1      20.510 -14.508  -0.985  0.00  0.00    +0.000 HD
ATOM     21  H   UNL     1      20.510 -14.508  -0.985  0.00  0.00    +0.000 HD
ENDBRANCH   5  19
ENDBRANCH   2  13
BRANCH   1  22
ATOM     22  C   UNL     1      22.124 -18.521  -1.615  0.00  0.00    +0.000 C 
BRANCH  22  23
ATOM     23  C   UNL     1      23.588 -18.724  -1.222  0.00  0.00    +0.000 C 
ATOM     24  C   UNL     1      24.197 -17.349  -0.831  0.00  0.00    +0.000 C 
ATOM     25  C   UNL     1      25.681 -17.476  -0.474  0.00  0.00    +0.000 C 
ATOM     26  C   UNL     1      26.500 -18.118  -1.605  0.00  0.00    +0.000 C 
ATOM     27  C   UNL     1      25.876 -19.423  -2.172  0.00  0.00    +0.000 C 
ATOM     28  C   UNL     1      24.345 -19.378  -2.378  0.00  0.00    +0.000 C 
BRANCH  26  29
ATOM     29  N   UNL     1      27.839 -18.454  -1.090  0.00  0.00    +0.000 N 
ATOM     30  H   UNL     1      28.319 -19.023  -1.770  0.00  0.00    +0.000 HD
ATOM     31  H   UNL     1      27.739 -18.971  -0.230  0.00  0.00    +0.000 HD
BRANCH  29  32
ATOM     32  C   UNL     1      28.656 -17.213  -0.825  0.00  0.00    +0.000 C 
BRANCH  32  33
ATOM     33  C   UNL     1      29.972 -17.585  -0.158  0.00  0.00    +0.000 C 
BRANCH  33  34
ATOM     34  N   UNL     1      30.031 -17.053   1.192  0.00  0.00    +0.000 N 
ATOM     35  H   UNL     1      30.909 -17.310   1.616  0.00  0.00    +0.000 HD
ATOM     36  H   UNL     1      29.271 -17.432   1.736  0.00  0.00    +0.000 HD
ATOM     37  H   UNL     1      29.954 -16.048   1.161  0.00  0.00    +0.000 HD
ENDBRANCH  33  34
ENDBRANCH  32  33
ENDBRANCH  29  32
ENDBRANCH  26  29
ENDBRANCH  22  23
ENDBRANCH   1  22
TORSDOF 9
