REMARK  Name = 6g3c_ligand
REMARK  10 active torsions:
REMARK  status: ('A' for Active; 'I' for Inactive)
REMARK    1  A    between atoms: C_2  and  C_23
REMARK    2  A    between atoms: C_3  and  C_23
REMARK    3  A    between atoms: C_4  and  C_6
REMARK    4  A    between atoms: C_4  and  C_14
REMARK    5  A    between atoms: C_9  and  O_26
REMARK    6  A    between atoms: C_12  and  N_27
REMARK    7  A    between atoms: C_13  and  N_24
REMARK    8  A    between atoms: N_20  and  C_21
REMARK    9  A    between atoms: C_21  and  C_22
REMARK   10  A    between atoms: C_22  and  C_23
REMARK                            x       y       z     vdW  Elec       q    Type
REMARK                         _______ _______ _______ _____ _____    ______ ____
ROOT
ATOM      1  C   UNL     1     -11.814  12.630  20.448  0.00  0.00    +0.000 A 
ATOM      2  C   UNL     1      -7.328  11.337  19.183  0.00  0.00    +0.000 C 
ATOM      3  C   UNL     1      -7.085  12.800  18.751  0.00  0.00    +0.000 C 
ATOM      4  C   UNL     1      -6.052  10.807  19.905  0.00  0.00    +0.000 C 
ATOM      5  C   UNL     1      -7.907  15.113  18.294  0.00  0.00    +0.000 C 
ATOM      6  C   UNL     1      -7.541  10.571  17.823  0.00  0.00    +0.000 C 
ATOM      7  N   UNL     1     -11.733  13.735  19.681  0.00  0.00    +0.000 NA
ATOM      8  N   UNL     1     -10.760  11.775  20.481  0.00  0.00    +0.000 NA
ATOM      9  C   UNL     1      -9.551  12.087  19.934  0.00  0.00    +0.000 A 
ATOM     10  C   UNL     1      -9.428  13.282  19.172  0.00  0.00    +0.000 A 
ATOM     11  C   UNL     1     -10.571  14.111  19.103  0.00  0.00    +0.000 A 
ATOM     12  N   UNL     1      -8.556  11.162  19.994  0.00  0.00    +0.000 N 
ATOM     13  N   UNL     1      -8.134  13.683  18.682  0.00  0.00    +0.000 N 
ATOM     14  O   UNL     1      -5.925  13.115  18.490  0.00  0.00    +0.000 OA
ATOM     15  N   UNL     1     -13.017  12.319  20.988  0.00  0.00    +0.000 N 
ATOM     16  H   UNL     1     -13.815  12.802  20.576  0.00  0.00    +0.000 HD
ENDROOT
BRANCH  15  22
ATOM     17  C   UNL     1     -12.412  10.527  22.540  0.00  0.00    +0.000 A 
ATOM     18  C   UNL     1     -12.845   9.607  23.506  0.00  0.00    +0.000 A 
ATOM     19  C   UNL     1     -14.205   9.541  23.854  0.00  0.00    +0.000 A 
ATOM     20  C   UNL     1     -15.119  10.395  23.245  0.00  0.00    +0.000 A 
ATOM     21  C   UNL     1     -14.688  11.365  22.331  0.00  0.00    +0.000 A 
ATOM     22  C   UNL     1     -13.319  11.460  21.996  0.00  0.00    +0.000 A 
ATOM     23  F   UNL     1     -16.403  10.349  23.583  0.00  0.00    +0.000 F 
ATOM     24  F   UNL     1     -11.985   8.784  24.080  0.00  0.00    +0.000 F 
BRANCH  19  25
ATOM     25  O   UNL     1     -14.617   8.605  24.810  0.00  0.00    +0.000 OA
ATOM     26  H   UNL     1     -15.565   8.679  24.941  0.00  0.00    +0.000 HD
ENDBRANCH  19  25
ENDBRANCH  15  22
BRANCH  12  27
ATOM     27  C   UNL     1      -8.802   9.926  20.791  0.00  0.00    +0.000 C 
BRANCH  27  28
ATOM     28  C   UNL     1      -8.468  10.142  22.287  0.00  0.00    +0.000 C 
BRANCH  28  31
ATOM     29  C   UNL     1      -7.697   7.728  22.556  0.00  0.00    +0.000 C 
ATOM     30  C   UNL     1      -8.524   9.056  24.579  0.00  0.00    +0.000 C 
ATOM     31  C   UNL     1      -8.693   8.821  23.055  0.00  0.00    +0.000 C 
ENDBRANCH  28  31
ENDBRANCH  27  28
ENDBRANCH  12  27
TORSDOF 5
