REMARK  Name = 6qzh_ligand
REMARK  13 active torsions:
REMARK  status: ('A' for Active; 'I' for Inactive)
REMARK    1  A    between atoms: N_1  and  C_22
REMARK    2  A    between atoms: N_1  and  C_23
REMARK    3  A    between atoms: C_3  and  C_15
REMARK    4  A    between atoms: C_5  and  C_8
REMARK    5  A    between atoms: C_6  and  O_29
REMARK    6  A    between atoms: C_7  and  N_25
REMARK    7  A    between atoms: C_9  and  C_10
REMARK    8  A    between atoms: C_9  and  C_18
REMARK    9  A    between atoms: C_9  and  N_27
REMARK   10  A    between atoms: C_11  and  C_18
REMARK   11  A    between atoms: C_13  and  C_14
REMARK   12  A    between atoms: C_18  and  C_19
REMARK   13  A    between atoms: C_18  and  C_20
REMARK                            x       y       z     vdW  Elec       q    Type
REMARK                         _______ _______ _______ _____ _____    ______ ____
ROOT
ATOM      1  N   UNL     1     -19.471 -17.355 -17.193  0.00  0.00    +0.000 NA
ATOM      2  C   UNL     1     -18.427 -18.138 -17.090  0.00  0.00    +0.000 C 
ATOM      3  C   UNL     1     -18.678 -19.500 -16.696  0.00  0.00    +0.000 C 
ATOM      4  N   UNL     1     -17.144 -17.732 -17.331  0.00  0.00    +0.000 N 
ATOM      5  N   UNL     1     -19.948 -19.755 -16.497  0.00  0.00    +0.000 NA
ATOM      6  N   UNL     1     -17.746 -20.466 -16.530  0.00  0.00    +0.000 N 
ATOM      7  O   UNL     1     -21.378 -17.854 -15.599  0.00  0.00    +0.000 OA
ATOM      8  O   UNL     1     -21.613 -18.488 -17.936  0.00  0.00    +0.000 OA
ATOM      9  S   UNL     1     -20.764 -18.328 -16.799  0.00  0.00    +0.000 S 
ATOM     10  H   UNL     1     -16.410 -18.431 -17.213  0.00  0.00    +0.000 HD
ATOM     11  H   UNL     1     -16.766 -20.292 -16.753  0.00  0.00    +0.000 HD
ENDROOT
BRANCH   4  16
ATOM     12  C   UNL     1     -15.420 -15.007 -19.235  0.00  0.00    +0.000 A 
ATOM     13  C   UNL     1     -16.836 -14.043 -17.548  0.00  0.00    +0.000 A 
ATOM     14  C   UNL     1     -15.943 -13.867 -18.602  0.00  0.00    +0.000 A 
ATOM     15  C   UNL     1     -15.824 -16.280 -18.786  0.00  0.00    +0.000 A 
ATOM     16  C   UNL     1     -16.734 -16.437 -17.728  0.00  0.00    +0.000 A 
ATOM     17  C   UNL     1     -15.569 -12.474 -19.039  0.00  0.00    +0.000 C 
ATOM     18  C   UNL     1     -17.229 -15.294 -17.111  0.00  0.00    +0.000 A 
BRANCH  12  20
ATOM     19  N   UNL     1     -14.065 -14.845 -21.278  0.00  0.00    +0.000 N 
ATOM     20  C   UNL     1     -14.089 -14.908 -19.939  0.00  0.00    +0.000 C 
ATOM     21  C   UNL     1     -15.274 -14.876 -22.094  0.00  0.00    +0.000 C 
ATOM     22  C   UNL     1     -12.811 -14.729 -22.015  0.00  0.00    +0.000 C 
ATOM     23  O   UNL     1     -13.076 -14.888 -19.265  0.00  0.00    +0.000 OA
ENDBRANCH  12  20
BRANCH  15  24
ATOM     24  O   UNL     1     -15.326 -17.398 -19.374  0.00  0.00    +0.000 OA
ATOM     25  H   UNL     1     -15.701 -18.174 -18.952  0.00  0.00    +0.000 HD
ENDBRANCH  15  24
ENDBRANCH   4  16
BRANCH   6  26
ATOM     26  C   UNL     1     -18.178 -21.758 -16.026  0.00  0.00    +0.000 C 
BRANCH  26  27
ATOM     27  C   UNL     1     -17.948 -22.803 -17.058  0.00  0.00    +0.000 A 
ATOM     28  C   UNL     1     -17.938 -24.439 -18.563  0.00  0.00    +0.000 A 
ATOM     29  C   UNL     1     -16.687 -23.964 -18.450  0.00  0.00    +0.000 A 
ATOM     30  C   UNL     1     -15.389 -24.299 -19.090  0.00  0.00    +0.000 C 
ATOM     31  C   UNL     1     -18.749 -23.693 -17.670  0.00  0.00    +0.000 A 
ATOM     32  O   UNL     1     -16.664 -22.950 -17.526  0.00  0.00    +0.000 OA
ENDBRANCH  26  27
BRANCH  26  34
ATOM     33  C   UNL     1     -16.042 -21.804 -14.654  0.00  0.00    +0.000 C 
ATOM     34  C   UNL     1     -17.542 -22.099 -14.645  0.00  0.00    +0.000 C 
ATOM     35  C   UNL     1     -17.752 -23.580 -14.329  0.00  0.00    +0.000 C 
ATOM     36  C   UNL     1     -18.200 -21.266 -13.544  0.00  0.00    +0.000 C 
ENDBRANCH  26  34
ENDBRANCH   6  26
TORSDOF 6
