REMARK  Name = 6kjd_ligand
REMARK  18 active torsions:
REMARK  status: ('A' for Active; 'I' for Inactive)
REMARK    1  A    between atoms: O_1  and  C_11
REMARK    2  A    between atoms: O_2  and  C_14
REMARK    3  A    between atoms: O_4  and  C_8
REMARK    4  A    between atoms: O_5  and  C_16
REMARK    5  A    between atoms: O_5  and  C_25
REMARK    6  A    between atoms: C_8  and  C_17
REMARK    7  A    between atoms: C_8  and  C_18
REMARK    8  A    between atoms: C_11  and  C_22
REMARK    9  A    between atoms: C_12  and  C_21
REMARK   10  A    between atoms: C_13  and  C_19
REMARK   11  A    between atoms: C_14  and  C_18
REMARK   12  A    between atoms: C_14  and  C_22
REMARK   13  A    between atoms: C_17  and  C_19
REMARK   14  A    between atoms: C_23  and  C_24
REMARK   15  A    between atoms: C_25  and  C_26
REMARK   16  A    between atoms: C_26  and  C_28
REMARK   17  A    between atoms: C_26  and  C_29
REMARK   18  A    between atoms: C_28  and  C_30
REMARK                            x       y       z     vdW  Elec       q    Type
REMARK                         _______ _______ _______ _____ _____    ______ ____
ROOT
ATOM      1  C   UNL     1       6.229  32.976   4.211  0.00  0.00    +0.000 C 
ATOM      2  C   UNL     1       7.662  32.792   3.851  0.00  0.00    +0.000 C 
ATOM      3  C   UNL     1       5.863  34.009   4.977  0.00  0.00    +0.000 C 
ATOM      4  C   UNL     1       8.769  33.615   4.473  0.00  0.00    +0.000 C 
ATOM      5  C   UNL     1       6.879  35.074   5.364  0.00  0.00    +0.000 C 
ATOM      6  C   UNL     1       8.250  34.437   5.652  0.00  0.00    +0.000 C 
ATOM      7  C   UNL     1       7.997  31.881   2.938  0.00  0.00    +0.000 C 
ATOM      8  C   UNL     1      10.043  32.794   4.828  0.00  0.00    +0.000 C 
ATOM      9  C   UNL     1      10.296  31.684   3.796  0.00  0.00    +0.000 C 
ATOM     10  C   UNL     1       6.935  36.141   4.267  0.00  0.00    +0.000 C 
ATOM     11  C   UNL     1       9.445  31.810   2.532  0.00  0.00    +0.000 C 
ATOM     12  C   UNL     1       9.623  30.611   1.610  0.00  0.00    +0.000 C 
ENDROOT
BRANCH   8  13
ATOM     13  O   UNL     1      10.107  32.281   6.194  0.00  0.00    +0.000 OA
BRANCH  13  14
ATOM     14  C   UNL     1      11.135  32.879   7.180  0.00  0.00    +0.000 C 
ATOM     15  O   UNL     1      12.315  33.228   6.977  0.00  0.00    +0.000 OA
BRANCH  14  16
ATOM     16  C   UNL     1      10.836  33.103   8.636  0.00  0.00    +0.000 C 
ATOM     17  C   UNL     1      10.302  31.820   9.262  0.00  0.00    +0.000 C 
BRANCH  16  18
ATOM     18  C   UNL     1      12.153  33.594   9.281  0.00  0.00    +0.000 C 
ATOM     19  C   UNL     1      12.005  34.151  10.687  0.00  0.00    +0.000 C 
ENDBRANCH  16  18
ENDBRANCH  14  16
ENDBRANCH  13  14
ENDBRANCH   8  13
BRANCH   6  20
ATOM     20  C   UNL     1       9.305  35.474   6.020  0.00  0.00    +0.000 C 
BRANCH  20  21
ATOM     21  C   UNL     1       8.960  36.169   7.335  0.00  0.00    +0.000 C 
BRANCH  21  22
ATOM     22  C   UNL     1      10.003  37.231   7.676  0.00  0.00    +0.000 C 
BRANCH  22  23
ATOM     23  O   UNL     1      10.145  38.088   6.536  0.00  0.00    +0.000 OA
ATOM     24  H   UNL     1      10.797  38.766   6.726  0.00  0.00    +0.000 HD
ENDBRANCH  22  23
BRANCH  22  25
ATOM     25  C   UNL     1       9.561  38.041   8.899  0.00  0.00    +0.000 C 
BRANCH  25  26
ATOM     26  C   UNL     1       9.774  37.288  10.213  0.00  0.00    +0.000 C 
BRANCH  26  27
ATOM     27  O   UNL     1      11.161  37.202  10.558  0.00  0.00    +0.000 OA
ATOM     28  H   UNL     1      11.255  36.724  11.386  0.00  0.00    +0.000 HD
ENDBRANCH  26  27
BRANCH  26  29
ATOM     29  C   UNL     1       9.049  37.998  11.353  0.00  0.00    +0.000 C 
BRANCH  29  31
ATOM     30  O   UNL     1       8.953  40.195  12.209  0.00  0.00    +0.000 OA
ATOM     31  C   UNL     1       9.625  39.371  11.604  0.00  0.00    +0.000 C 
BRANCH  31  32
ATOM     32  O   UNL     1      10.850  39.704  11.186  0.00  0.00    +0.000 OA
ATOM     33  H   UNL     1      11.246  38.957  10.732  0.00  0.00    +0.000 HD
ENDBRANCH  31  32
ENDBRANCH  29  31
ENDBRANCH  26  29
ENDBRANCH  25  26
ENDBRANCH  22  25
ENDBRANCH  21  22
ENDBRANCH  20  21
ENDBRANCH   6  20
TORSDOF 14
