REMARK  Name = 6uwv_ligand
REMARK  8 active torsions:
REMARK  status: ('A' for Active; 'I' for Inactive)
REMARK    1  A    between atoms: C_11  and  C_16
REMARK    2  A    between atoms: C_13  and  C_21
REMARK    3  A    between atoms: C_14  and  C_17
REMARK    4  A    between atoms: C_15  and  C_20
REMARK    5  A    between atoms: C_18  and  C_21
REMARK    6  A    between atoms: C_19  and  C_21
REMARK    7  A    between atoms: C_20  and  O_27
REMARK    8  A    between atoms: C_21  and  O_27
REMARK                            x       y       z     vdW  Elec       q    Type
REMARK                         _______ _______ _______ _____ _____    ______ ____
ROOT
ATOM      1  C   UNL     1      15.416  54.502  88.043  0.00  0.00    +0.000 A 
ATOM      2  C   UNL     1      22.315  55.052  89.948  0.00  0.00    +0.000 C 
ATOM      3  C   UNL     1      17.949  55.309  87.899  0.00  0.00    +0.000 A 
ATOM      4  C   UNL     1      16.323  53.888  87.200  0.00  0.00    +0.000 A 
ATOM      5  C   UNL     1      15.888  55.566  88.788  0.00  0.00    +0.000 A 
ATOM      6  C   UNL     1      19.801  56.837  88.625  0.00  0.00    +0.000 C 
ATOM      7  C   UNL     1      20.297  55.098  86.990  0.00  0.00    +0.000 C 
ATOM      8  C   UNL     1      22.195  57.665  89.052  0.00  0.00    +0.000 C 
ATOM      9  C   UNL     1      21.222  57.030  88.060  0.00  0.00    +0.000 C 
ATOM     10  C   UNL     1      21.613  55.616  87.623  0.00  0.00    +0.000 C 
ATOM     11  N   UNL     1      17.164  55.990  88.752  0.00  0.00    +0.000 NA
ATOM     12  N   UNL     1      17.613  54.276  87.109  0.00  0.00    +0.000 NA
ATOM     13  N   UNL     1      21.946  54.706  88.725  0.00  0.00    +0.000 N 
ATOM     14  N   UNL     1      19.266  55.732  87.829  0.00  0.00    +0.000 N 
ATOM     15  N   UNL     1      22.597  54.106  90.902  0.00  0.00    +0.000 NA
ATOM     16  S   UNL     1      22.493  56.695  90.551  0.00  0.00    +0.000 S 
ATOM     17  H   UNL     1      21.887  53.707  88.529  0.00  0.00    +0.000 HD
ATOM     18  H   UNL     1      22.524  53.114  90.674  0.00  0.00    +0.000 HD
ENDROOT
BRANCH  10  20
ATOM     19  C   UNL     1      23.633  54.394  86.414  0.00  0.00    +0.000 C 
ATOM     20  C   UNL     1      22.714  55.590  86.579  0.00  0.00    +0.000 C 
ATOM     21  C   UNL     1      24.184  55.705  86.937  0.00  0.00    +0.000 C 
BRANCH  21  24
ATOM     22  C   UNL     1      25.167  56.219  84.644  0.00  0.00    +0.000 C 
ATOM     23  C   UNL     1      24.620  58.090  86.188  0.00  0.00    +0.000 C 
ATOM     24  C   UNL     1      25.076  56.615  86.134  0.00  0.00    +0.000 C 
BRANCH  24  25
ATOM     25  O   UNL     1      26.420  56.651  86.696  0.00  0.00    +0.000 OA
BRANCH  25  26
ATOM     26  C   UNL     1      27.034  55.373  86.861  0.00  0.00    +0.000 C 
BRANCH  26  29
ATOM     27  C   UNL     1      29.598  55.800  87.213  0.00  0.00    +0.000 C 
ATOM     28  C   UNL     1      29.290  54.464  87.840  0.00  0.00    +0.000 C 
ATOM     29  C   UNL     1      28.223  55.534  87.797  0.00  0.00    +0.000 C 
ATOM     30  C   UNL     1      29.891  54.110  89.160  0.00  0.00    +0.000 C 
ENDBRANCH  26  29
ENDBRANCH  25  26
ENDBRANCH  24  25
ENDBRANCH  21  24
ENDBRANCH  10  20
TORSDOF 5
