REMARK  Name = 6jan_ligand
REMARK  12 active torsions:
REMARK  status: ('A' for Active; 'I' for Inactive)
REMARK    1  A    between atoms: C_1  and  O_7
REMARK    2  A    between atoms: C_2  and  O_8
REMARK    3  A    between atoms: C_3  and  O_9
REMARK    4  A    between atoms: C_4  and  O_10
REMARK    5  A    between atoms: C_5  and  C_6
REMARK    6  A    between atoms: C_6  and  O_12
REMARK    7  A    between atoms: O_7  and  C_16
REMARK    8  A    between atoms: C_13  and  O_19
REMARK    9  A    between atoms: C_14  and  O_20
REMARK   10  A    between atoms: C_15  and  O_21
REMARK   11  A    between atoms: C_17  and  C_18
REMARK   12  A    between atoms: C_18  and  O_23
REMARK                            x       y       z     vdW  Elec       q    Type
REMARK                         _______ _______ _______ _____ _____    ______ ____
ROOT
ATOM      1  O   UNL     1      -6.639 -32.957 -14.846  0.00  0.00    +0.000 OA
ENDROOT
BRANCH   1   2
ATOM      2  C   UNL     1      -6.253 -32.216 -13.712  0.00  0.00    +0.000 C 
ATOM      3  C   UNL     1      -7.599 -31.908 -13.022  0.00  0.00    +0.000 C 
ATOM      4  C   UNL     1      -8.442 -30.873 -13.799  0.00  0.00    +0.000 C 
ATOM      5  C   UNL     1      -7.607 -29.633 -14.022  0.00  0.00    +0.000 C 
ATOM      6  C   UNL     1      -6.284 -30.018 -14.730  0.00  0.00    +0.000 C 
ATOM      7  O   UNL     1      -5.558 -31.000 -14.017  0.00  0.00    +0.000 OA
BRANCH   3   8
ATOM      8  O   UNL     1      -8.378 -33.074 -12.920  0.00  0.00    +0.000 OA
ATOM      9  H   UNL     1      -7.886 -33.745 -12.441  0.00  0.00    +0.000 HD
ENDBRANCH   3   8
BRANCH   4  10
ATOM     10  O   UNL     1      -9.608 -30.550 -13.021  0.00  0.00    +0.000 OA
ATOM     11  H   UNL     1     -10.131 -31.344 -12.885  0.00  0.00    +0.000 HD
ENDBRANCH   4  10
BRANCH   5  12
ATOM     12  O   UNL     1      -8.383 -28.679 -14.752  0.00  0.00    +0.000 OA
ATOM     13  H   UNL     1      -9.186 -28.482 -14.265  0.00  0.00    +0.000 HD
ENDBRANCH   5  12
BRANCH   6  14
ATOM     14  C   UNL     1      -5.443 -28.740 -14.825  0.00  0.00    +0.000 C 
BRANCH  14  15
ATOM     15  O   UNL     1      -4.234 -28.954 -15.601  0.00  0.00    +0.000 OA
ATOM     16  H   UNL     1      -3.732 -28.137 -15.641  0.00  0.00    +0.000 HD
ENDBRANCH  14  15
ENDBRANCH   6  14
ENDBRANCH   1   2
BRANCH   1  20
ATOM     17  C   UNL     1      -5.410 -36.551 -16.647  0.00  0.00    +0.000 C 
ATOM     18  C   UNL     1      -5.108 -36.377 -15.177  0.00  0.00    +0.000 C 
ATOM     19  C   UNL     1      -5.858 -35.261 -14.533  0.00  0.00    +0.000 C 
ATOM     20  C   UNL     1      -5.721 -33.944 -15.330  0.00  0.00    +0.000 C 
ATOM     21  C   UNL     1      -5.975 -34.151 -16.811  0.00  0.00    +0.000 C 
ATOM     22  O   UNL     1      -5.211 -35.245 -17.294  0.00  0.00    +0.000 OA
BRANCH  17  23
ATOM     23  O   UNL     1      -6.705 -36.939 -16.789  0.00  0.00    +0.000 OA
ATOM     24  H   UNL     1      -6.904 -37.051 -17.721  0.00  0.00    +0.000 HD
ENDBRANCH  17  23
BRANCH  18  25
ATOM     25  O   UNL     1      -5.350 -37.638 -14.495  0.00  0.00    +0.000 OA
ATOM     26  H   UNL     1      -5.160 -37.536 -13.559  0.00  0.00    +0.000 HD
ENDBRANCH  18  25
BRANCH  19  27
ATOM     27  O   UNL     1      -5.362 -35.167 -13.188  0.00  0.00    +0.000 OA
ATOM     28  H   UNL     1      -5.817 -34.457 -12.729  0.00  0.00    +0.000 HD
ENDBRANCH  19  27
BRANCH  21  29
ATOM     29  C   UNL     1      -5.587 -32.963 -17.687  0.00  0.00    +0.000 C 
BRANCH  29  30
ATOM     30  O   UNL     1      -4.190 -32.696 -17.601  0.00  0.00    +0.000 OA
ATOM     31  H   UNL     1      -3.974 -31.946 -18.160  0.00  0.00    +0.000 HD
ENDBRANCH  29  30
ENDBRANCH  21  29
ENDBRANCH   1  20
TORSDOF 12
