REMARK  Name = 6g2f_ligand
REMARK  5 active torsions:
REMARK  status: ('A' for Active; 'I' for Inactive)
REMARK    1  A    between atoms: C_5  and  C_10
REMARK    2  A    between atoms: C_6  and  C_11
REMARK    3  A    between atoms: C_7  and  C_16
REMARK    4  A    between atoms: C_8  and  C_14
REMARK    5  A    between atoms: C_13  and  N_21
REMARK                            x       y       z     vdW  Elec       q    Type
REMARK                         _______ _______ _______ _____ _____    ______ ____
ROOT
ATOM      1  C   UNL     1      -3.358   7.904 -19.619  0.00  0.00    +0.000 A 
ATOM      2  C   UNL     1      -4.101   7.205 -20.551  0.00  0.00    +0.000 A 
ATOM      3  C   UNL     1      -3.978   5.943 -18.831  0.00  0.00    +0.000 A 
ATOM      4  C   UNL     1      -2.655   7.328 -17.214  0.00  0.00    +0.000 C 
ATOM      5  N   UNL     1      -4.465   5.965 -20.051  0.00  0.00    +0.000 NA
ATOM      6  N   UNL     1      -3.274   7.058 -18.508  0.00  0.00    +0.000 N 
ENDROOT
BRANCH   1  11
ATOM      7  C   UNL     1      -0.398   8.500 -19.629  0.00  0.00    +0.000 A 
ATOM      8  C   UNL     1      -1.391   9.514 -19.625  0.00  0.00    +0.000 A 
ATOM      9  C   UNL     1      -0.972  10.872 -19.673  0.00  0.00    +0.000 A 
ATOM     10  C   UNL     1      -3.150  11.630 -19.724  0.00  0.00    +0.000 A 
ATOM     11  C   UNL     1      -2.800   9.273 -19.658  0.00  0.00    +0.000 A 
ATOM     12  C   UNL     1       0.929   8.815 -19.610  0.00  0.00    +0.000 A 
ATOM     13  C   UNL     1       1.301  10.143 -19.598  0.00  0.00    +0.000 A 
ATOM     14  C   UNL     1       0.411  11.171 -19.637  0.00  0.00    +0.000 A 
ATOM     15  C   UNL     1      -3.666  10.342 -19.725  0.00  0.00    +0.000 A 
ATOM     16  F   UNL     1       2.630  10.426 -19.521  0.00  0.00    +0.000 F 
ATOM     17  N   UNL     1      -1.859  11.924 -19.680  0.00  0.00    +0.000 NA
ENDBRANCH   1  11
BRANCH   2  18
ATOM     18  C   UNL     1      -4.516   7.583 -21.911  0.00  0.00    +0.000 A 
ATOM     19  C   UNL     1      -3.702   8.060 -22.986  0.00  0.00    +0.000 A 
ATOM     20  C   UNL     1      -7.110   7.140 -21.888  0.00  0.00    +0.000 C 
ATOM     21  C   UNL     1      -5.786   7.546 -22.422  0.00  0.00    +0.000 A 
ATOM     22  C   UNL     1      -2.232   8.325 -23.013  0.00  0.00    +0.000 C 
ATOM     23  N   UNL     1      -4.420   8.313 -24.042  0.00  0.00    +0.000 NA
ATOM     24  O   UNL     1      -5.761   7.970 -23.699  0.00  0.00    +0.000 OA
ENDBRANCH   2  18
TORSDOF 2
