REMARK  Name = 6qsz_ligand
REMARK  36 active torsions:
REMARK  status: ('A' for Active; 'I' for Inactive)
REMARK    1  A    between atoms: N_1  and  CA_2
REMARK    2  A    between atoms: CA_2  and  C_3
REMARK    3  A    between atoms: CA_2  and  CB_5
REMARK    4  A    between atoms: CB_5  and  OG1_6
REMARK    5  A    between atoms: CB_5  and  CG2_7
REMARK    6  A    between atoms: N_8  and  CA_9
REMARK    7  A    between atoms: CA_9  and  C_10
REMARK    8  A    between atoms: CA_9  and  CB_12
REMARK    9  A    between atoms: CB_12  and  CG_13
REMARK   10  A    between atoms: CG_13  and  OD1_14
REMARK   11  A    between atoms: N_16  and  CA_17
REMARK   12  A    between atoms: CA_17  and  C_18
REMARK   13  A    between atoms: CA_17  and  CB_20
REMARK   14  A    between atoms: CB_20  and  CG_21
REMARK   15  A    between atoms: CG_21  and  CD1_22
REMARK   16  A    between atoms: CG_21  and  CD2_23
REMARK   17  A    between atoms: CA_25  and  C_26
REMARK   18  A    between atoms: N_31  and  C_32
REMARK   19  A    between atoms: C_32  and  C_33
REMARK   20  A    between atoms: C_32  and  C_35
REMARK   21  A    between atoms: C_33  and  O_34
REMARK   22  A    between atoms: O_34  and  P_37
REMARK   23  A    between atoms: P_37  and  O_39
REMARK   24  A    between atoms: P_37  and  O_40
REMARK   25  A    between atoms: N_41  and  CA_42
REMARK   26  A    between atoms: CA_42  and  C_43
REMARK   27  A    between atoms: CA_42  and  CB_45
REMARK   28  A    between atoms: CB_45  and  CG_46
REMARK   29  A    between atoms: CG_46  and  OD1_47
REMARK   30  A    between atoms: CA_50  and  C_51
REMARK   31  A    between atoms: CA_57  and  C_58
REMARK   32  A    between atoms: N_63  and  C_64
REMARK   33  A    between atoms: C_64  and  C_65
REMARK   34  A    between atoms: C_64  and  C_67
REMARK   35  A    between atoms: C_65  and  O_69
REMARK   36  A    between atoms: C_67  and  O_68
REMARK                            x       y       z     vdW  Elec       q    Type
REMARK                         _______ _______ _______ _____ _____    ______ ____
ROOT
ATOM      1  C   UNK A   5       8.087   1.627   0.658  0.00  0.00    +0.000 C 
ENDROOT
BRANCH   1   2
ATOM      2  C   UNK A   5       7.363   1.763  -0.667  0.00  0.00    +0.000 C 
ATOM      3  O   UNK A   5       7.431   0.854  -1.500  0.00  0.00    +0.000 OA
ATOM      4  N   ASP A   6       6.663   2.906  -0.853  0.00  0.00    +0.000 N 
ATOM      5  H   ASP A   6       6.666   3.590  -0.096  0.00  0.00    +0.000 HD
BRANCH   4   6
ATOM      6  CA  ASP A   6       5.906   3.232  -2.054  0.00  0.00    +0.000 C 
BRANCH   6   7
ATOM      7  C   ASP A   6       6.762   4.064  -3.017  0.00  0.00    +0.000 C 
ATOM      8  O   ASP A   6       7.471   4.975  -2.562  0.00  0.00    +0.000 OA
ATOM      9  N   PRO A   7       6.711   3.765  -4.347  0.00  0.00    +0.000 N 
ATOM     10  CA  PRO A   7       7.517   4.532  -5.321  0.00  0.00    +0.000 C 
ATOM     11  CB  PRO A   7       7.154   3.896  -6.660  0.00  0.00    +0.000 C 
ATOM     12  CG  PRO A   7       6.633   2.576  -6.326  0.00  0.00    +0.000 C 
ATOM     13  CD  PRO A   7       5.939   2.709  -5.023  0.00  0.00    +0.000 C 
BRANCH  10  14
ATOM     14  C   PRO A   7       7.179   6.015  -5.348  0.00  0.00    +0.000 C 
ATOM     15  O   PRO A   7       6.056   6.371  -4.977  0.00  0.00    +0.000 OA
ATOM     16  N   PRO A   8       8.117   6.894  -5.784  0.00  0.00    +0.000 N 
ATOM     17  CA  PRO A   8       7.807   8.344  -5.835  0.00  0.00    +0.000 C 
ATOM     18  CB  PRO A   8       9.131   8.973  -6.277  0.00  0.00    +0.000 C 
ATOM     19  CG  PRO A   8       9.857   7.875  -6.988  0.00  0.00    +0.000 C 
ATOM     20  CD  PRO A   8       9.485   6.619  -6.278  0.00  0.00    +0.000 C 
BRANCH  17  21
ATOM     21  C   PRO A   8       6.650   8.691  -6.788  0.00  0.00    +0.000 C 
ATOM     22  O   PRO A   8       6.525   8.082  -7.871  0.00  0.00    +0.000 OA
ATOM     23  N   UNK A   9       5.780   9.628  -6.339  0.00  0.00    +0.000 N 
ATOM     24  H   UNK A   9       5.976  10.039  -5.426  0.00  0.00    +0.000 HD
BRANCH  23  25
ATOM     25  C   UNK A   9       4.582  10.108  -7.041  0.00  0.00    +0.000 C 
BRANCH  25  26
ATOM     26  C   UNK A   9       4.866  11.339  -7.900  0.00  0.00    +0.000 C 
ATOM     27  O   UNK A   9       4.303  11.475  -8.986  0.00  0.00    +0.000 OA
BRANCH  26  28
ATOM     28  O   UNK A   9       5.658  12.195  -7.506  0.00  0.00    +0.000 OA
ATOM     29  H   UNK A   9       6.005  11.938  -6.649  0.00  0.00    +0.000 HD
ENDBRANCH  26  28
ENDBRANCH  25  26
BRANCH  25  30
ATOM     30  C   UNK A   9       3.462  10.399  -6.044  0.00  0.00    +0.000 C 
BRANCH  30  31
ATOM     31  O   UNK A   9       3.944  10.969  -4.836  0.00  0.00    +0.000 OA
ATOM     32  H   UNK A   9       3.206  11.133  -4.244  0.00  0.00    +0.000 HD
ENDBRANCH  30  31
ENDBRANCH  25  30
ENDBRANCH  23  25
ENDBRANCH  17  21
ENDBRANCH  10  14
ENDBRANCH   6   7
BRANCH   6  33
ATOM     33  CB  ASP A   6       4.608   3.972  -1.690  0.00  0.00    +0.000 C 
BRANCH  33  34
ATOM     34  CG  ASP A   6       3.665   3.153  -0.832  0.00  0.00    +0.000 C 
ATOM     35  OD2 ASP A   6       3.457   3.528   0.342  0.00  0.00    +0.000 OA
BRANCH  34  36
ATOM     36  OD1 ASP A   6       3.152   2.121  -1.327  0.00  0.00    +0.000 OA
ATOM     37  HD1 ASP A   6       3.446   2.023  -2.236  0.00  0.00    +0.000 HD
ENDBRANCH  34  36
ENDBRANCH  33  34
ENDBRANCH   6  33
ENDBRANCH   4   6
ENDBRANCH   1   2
BRANCH   1  40
ATOM     38  C   PRO A   4       9.285   3.849   0.714  0.00  0.00    +0.000 C 
ATOM     39  O   PRO A   4      10.027   3.636  -0.244  0.00  0.00    +0.000 OA
ATOM     40  N   UNK A   5       8.374   2.967   1.187  0.00  0.00    +0.000 N 
ATOM     41  H   UNK A   5       7.829   3.264   1.996  0.00  0.00    +0.000 HD
BRANCH  38  45
ATOM     42  C   LEU A   3      11.645   5.154   2.272  0.00  0.00    +0.000 C 
ATOM     43  O   LEU A   3      11.426   4.050   2.751  0.00  0.00    +0.000 OA
ATOM     44  N   PRO A   4      10.681   5.795   1.570  0.00  0.00    +0.000 N 
ATOM     45  CA  PRO A   4       9.343   5.184   1.428  0.00  0.00    +0.000 C 
ATOM     46  CB  PRO A   4       8.546   6.242   0.664  0.00  0.00    +0.000 C 
ATOM     47  CG  PRO A   4       9.582   7.045  -0.056  0.00  0.00    +0.000 C 
ATOM     48  CD  PRO A   4      10.713   7.123   0.932  0.00  0.00    +0.000 C 
BRANCH  42  49
ATOM     49  CA  LEU A   3      13.034   5.778   2.530  0.00  0.00    +0.000 C 
BRANCH  49  52
ATOM     50  C   ASP A   2      13.447   5.557   5.003  0.00  0.00    +0.000 C 
ATOM     51  O   ASP A   2      12.898   6.619   5.323  0.00  0.00    +0.000 OA
ATOM     52  N   LEU A   3      13.581   5.143   3.726  0.00  0.00    +0.000 N 
ATOM     53  H   LEU A   3      14.124   4.292   3.580  0.00  0.00    +0.000 HD
BRANCH  50  54
ATOM     54  CA  ASP A   2      14.034   4.575   6.056  0.00  0.00    +0.000 C 
BRANCH  54  57
ATOM     55  C   THR A   1      16.063   3.184   5.604  0.00  0.00    +0.000 C 
ATOM     56  O   THR A   1      15.417   2.137   5.477  0.00  0.00    +0.000 OA
ATOM     57  N   ASP A   2      15.484   4.386   5.884  0.00  0.00    +0.000 N 
ATOM     58  H   ASP A   2      16.090   5.201   5.980  0.00  0.00    +0.000 HD
BRANCH  55  59
ATOM     59  CA  THR A   1      17.595   3.166   5.410  0.00  0.00    +0.000 C 
BRANCH  59  60
ATOM     60  N   THR A   1      18.064   4.511   5.063  0.00  0.00    +0.000 N 
ATOM     61  H1  THR A   1      17.512   4.872   4.285  0.00  0.00    +0.000 HD
ATOM     62  H2  THR A   1      17.959   5.125   5.870  0.00  0.00    +0.000 HD
ATOM     63  H3  THR A   1      19.047   4.468   4.793  0.00  0.00    +0.000 HD
ENDBRANCH  59  60
BRANCH  59  64
ATOM     64  CB  THR A   1      18.405   2.540   6.609  0.00  0.00    +0.000 C 
ATOM     65  CG2 THR A   1      18.311   1.008   6.663  0.00  0.00    +0.000 C 
BRANCH  64  66
ATOM     66  OG1 THR A   1      19.787   2.929   6.578  0.00  0.00    +0.000 OA
ATOM     67  HG1 THR A   1      19.848   3.886   6.544  0.00  0.00    +0.000 HD
ENDBRANCH  64  66
ENDBRANCH  59  64
ENDBRANCH  55  59
ENDBRANCH  54  57
BRANCH  54  68
ATOM     68  CB  ASP A   2      13.657   4.937   7.507  0.00  0.00    +0.000 C 
BRANCH  68  69
ATOM     69  CG  ASP A   2      14.167   3.917   8.519  0.00  0.00    +0.000 C 
ATOM     70  OD2 ASP A   2      14.989   4.295   9.380  0.00  0.00    +0.000 OA
BRANCH  69  71
ATOM     71  OD1 ASP A   2      13.775   2.730   8.421  0.00  0.00    +0.000 OA
ATOM     72  HD1 ASP A   2      13.148   2.660   7.697  0.00  0.00    +0.000 HD
ENDBRANCH  69  71
ENDBRANCH  68  69
ENDBRANCH  54  68
ENDBRANCH  50  54
ENDBRANCH  49  52
BRANCH  49  73
ATOM     73  CB  LEU A   3      13.993   5.603   1.326  0.00  0.00    +0.000 C 
BRANCH  73  74
ATOM     74  CG  LEU A   3      14.008   4.302   0.528  0.00  0.00    +0.000 C 
ATOM     75  CD1 LEU A   3      14.545   4.536  -0.848  0.00  0.00    +0.000 C 
ATOM     76  CD2 LEU A   3      14.868   3.260   1.184  0.00  0.00    +0.000 C 
ENDBRANCH  73  74
ENDBRANCH  49  73
ENDBRANCH  42  49
ENDBRANCH  38  45
ENDBRANCH   1  40
BRANCH   1  77
ATOM     77  C   UNK A   5       7.023   0.957   1.513  0.00  0.00    +0.000 C 
BRANCH  77  78
ATOM     78  O   UNK A   5       7.305   1.007   2.905  0.00  0.00    +0.000 OA
BRANCH  78  79
ATOM     79  P   UNK A   5       6.381   1.902   3.764  0.00  0.00    +0.000 P 
ATOM     80  O   UNK A   5       4.934   1.951   3.356  0.00  0.00    +0.000 OA
BRANCH  79  81
ATOM     81  O   UNK A   5       6.892   3.358   3.701  0.00  0.00    +0.000 OA
ATOM     82  H   UNK A   5       7.818   3.382   3.954  0.00  0.00    +0.000 HD
ENDBRANCH  79  81
BRANCH  79  83
ATOM     83  O   UNK A   5       6.483   1.263   5.137  0.00  0.00    +0.000 OA
ATOM     84  H   UNK A   5       7.404   1.228   5.405  0.00  0.00    +0.000 HD
ENDBRANCH  79  83
ENDBRANCH  78  79
ENDBRANCH  77  78
ENDBRANCH   1  77
TORSDOF 33
