REMARK  Name = 6s57_ligand
REMARK  8 active torsions:
REMARK  status: ('A' for Active; 'I' for Inactive)
REMARK    1  A    between atoms: C_1  and  N_10
REMARK    2  A    between atoms: C_2  and  C_3
REMARK    3  A    between atoms: C_3  and  N_12
REMARK    4  A    between atoms: C_4  and  C_16
REMARK    5  A    between atoms: C_5  and  C_16
REMARK    6  A    between atoms: C_6  and  C_7
REMARK    7  A    between atoms: C_20  and  S_21
REMARK    8  A    between atoms: S_21  and  N_24
REMARK                            x       y       z     vdW  Elec       q    Type
REMARK                         _______ _______ _______ _____ _____    ______ ____
ROOT
ATOM      1  C   UNL     1     -22.714  46.885   8.441  0.00  0.00    +0.000 A 
ATOM      2  C   UNL     1     -20.816  43.240   9.822  0.00  0.00    +0.000 C 
ATOM      3  C   UNL     1     -21.511  44.496   9.366  0.00  0.00    +0.000 A 
ATOM      4  C   UNL     1     -20.823  45.409   8.568  0.00  0.00    +0.000 A 
ATOM      5  C   UNL     1     -21.402  46.578   8.108  0.00  0.00    +0.000 A 
ATOM      6  C   UNL     1     -23.432  45.991   9.228  0.00  0.00    +0.000 A 
ATOM      7  C   UNL     1     -22.842  44.820   9.687  0.00  0.00    +0.000 A 
ENDROOT
BRANCH   1   9
ATOM      8  C   UNL     1     -24.545  48.530   8.004  0.00  0.00    +0.000 C 
ATOM      9  N   UNL     1     -23.264  48.094   7.942  0.00  0.00    +0.000 N 
ATOM     10  O   UNL     1     -25.463  47.917   8.541  0.00  0.00    +0.000 OA
ATOM     11  H   UNL     1     -22.607  48.718   7.474  0.00  0.00    +0.000 HD
BRANCH   8  12
ATOM     12  C   UNL     1     -24.781  49.881   7.352  0.00  0.00    +0.000 C 
BRANCH  12  15
ATOM     13  C   UNL     1     -29.498  49.757   7.479  0.00  0.00    +0.000 C 
ATOM     14  C   UNL     1     -28.916  51.850   6.172  0.00  0.00    +0.000 C 
ATOM     15  N   UNL     1     -26.142  50.368   7.512  0.00  0.00    +0.000 N 
ATOM     16  C   UNL     1     -26.578  51.153   8.574  0.00  0.00    +0.000 C 
ATOM     17  O   UNL     1     -25.888  51.536   9.510  0.00  0.00    +0.000 OA
ATOM     18  N   UNL     1     -27.895  51.406   8.378  0.00  0.00    +0.000 N 
ATOM     19  C   UNL     1     -28.415  50.789   7.155  0.00  0.00    +0.000 C 
ATOM     20  C   UNL     1     -27.162  50.106   6.625  0.00  0.00    +0.000 C 
ATOM     21  O   UNL     1     -27.063  49.444   5.608  0.00  0.00    +0.000 OA
ATOM     22  H   UNL     1     -28.463  51.966   9.014  0.00  0.00    +0.000 HD
ENDBRANCH  12  15
ENDBRANCH   8  12
ENDBRANCH   1   9
BRANCH   7  23
ATOM     23  S   UNL     1     -23.837  43.745  10.692  0.00  0.00    +0.000 S 
ATOM     24  O   UNL     1     -23.134  43.522  11.916  0.00  0.00    +0.000 OA
ATOM     25  O   UNL     1     -24.214  42.632   9.881  0.00  0.00    +0.000 OA
BRANCH  23  26
ATOM     26  N   UNL     1     -25.214  44.532  11.081  0.00  0.00    +0.000 NA
ATOM     27  C   UNL     1     -25.164  45.518  12.180  0.00  0.00    +0.000 C 
ATOM     28  C   UNL     1     -26.442  46.303  12.407  0.00  0.00    +0.000 C 
ATOM     29  C   UNL     1     -27.668  45.461  12.690  0.00  0.00    +0.000 C 
ATOM     30  C   UNL     1     -28.403  44.976  11.469  0.00  0.00    +0.000 C 
ATOM     31  C   UNL     1     -27.599  44.099  10.534  0.00  0.00    +0.000 C 
ATOM     32  C   UNL     1     -26.280  44.658  10.067  0.00  0.00    +0.000 C 
ENDBRANCH  23  26
ENDBRANCH   7  23
TORSDOF 5
