REMARK  Name = 6g24_ligand
REMARK  4 active torsions:
REMARK  status: ('A' for Active; 'I' for Inactive)
REMARK    1  A    between atoms: C_1  and  C_7
REMARK    2  A    between atoms: C_2  and  C_12
REMARK    3  A    between atoms: C_3  and  C_11
REMARK    4  A    between atoms: C_7  and  O_15
REMARK                            x       y       z     vdW  Elec       q    Type
REMARK                         _______ _______ _______ _____ _____    ______ ____
ROOT
ATOM      1  C   UNL     1      -1.630 -19.062  17.761  0.00  0.00    +0.000 A 
ATOM      2  C   UNL     1      -2.503 -18.466  16.813  0.00  0.00    +0.000 A 
ATOM      3  C   UNL     1      -0.392 -18.464  18.018  0.00  0.00    +0.000 A 
ATOM      4  C   UNL     1      -0.023 -17.295  17.366  0.00  0.00    +0.000 A 
ATOM      5  C   UNL     1      -2.090 -17.301  16.148  0.00  0.00    +0.000 A 
ATOM      6  C   UNL     1      -0.859 -16.729  16.424  0.00  0.00    +0.000 A 
ENDROOT
BRANCH   2   8
ATOM      7  C   UNL     1      -5.006 -18.490  16.520  0.00  0.00    +0.000 C 
ATOM      8  C   UNL     1      -3.809 -19.075  16.517  0.00  0.00    +0.000 C 
BRANCH   7  11
ATOM      9  C   UNL     1      -8.157 -20.707  15.909  0.00  0.00    +0.000 A 
ATOM     10  C   UNL     1      -8.598 -19.439  16.070  0.00  0.00    +0.000 A 
ATOM     11  C   UNL     1      -6.280 -19.139  16.295  0.00  0.00    +0.000 A 
ATOM     12  C   UNL     1      -7.521 -18.514  16.296  0.00  0.00    +0.000 A 
ATOM     13  S   UNL     1      -6.438 -20.832  16.002  0.00  0.00    +0.000 S 
ENDBRANCH   7  11
ENDBRANCH   2   8
BRANCH   1  14
ATOM     14  C   UNL     1      -1.978 -20.292  18.570  0.00  0.00    +0.000 C 
ATOM     15  O   UNL     1      -3.071 -20.311  19.178  0.00  0.00    +0.000 OA
BRANCH  14  16
ATOM     16  O   UNL     1      -1.145 -21.228  18.612  0.00  0.00    +0.000 OA
ATOM     17  H   UNL     1      -0.383 -21.001  18.074  0.00  0.00    +0.000 HD
ENDBRANCH  14  16
ENDBRANCH   1  14
TORSDOF 4
