REMARK  Name = 6mjj_ligand
REMARK  54 active torsions:
REMARK  status: ('A' for Active; 'I' for Inactive)
REMARK    1  A    between atoms: C_1  and  O_32
REMARK    2  A    between atoms: C_2  and  O_29
REMARK    3  A    between atoms: C_3  and  O_28
REMARK    4  A    between atoms: C_5  and  C_30
REMARK    5  A    between atoms: C_5  and  O_31
REMARK    6  A    between atoms: C_6  and  C_7
REMARK    7  A    between atoms: C_7  and  C_8
REMARK    8  A    between atoms: C_8  and  C_9
REMARK    9  A    between atoms: C_9  and  C_10
REMARK   10  A    between atoms: C_10  and  C_11
REMARK   11  A    between atoms: C_11  and  C_12
REMARK   12  A    between atoms: C_12  and  C_13
REMARK   13  A    between atoms: C_13  and  C_14
REMARK   14  A    between atoms: C_14  and  C_15
REMARK   15  A    between atoms: C_15  and  C_16
REMARK   16  A    between atoms: C_16  and  C_17
REMARK   17  A    between atoms: C_17  and  C_18
REMARK   18  A    between atoms: C_18  and  C_19
REMARK   19  A    between atoms: C_19  and  C_20
REMARK   20  A    between atoms: C_20  and  O_21
REMARK   21  A    between atoms: C_20  and  C_22
REMARK   22  A    between atoms: C_22  and  O_23
REMARK   23  A    between atoms: C_22  and  C_24
REMARK   24  A    between atoms: C_24  and  C_25
REMARK   25  A    between atoms: C_24  and  N_42
REMARK   26  A    between atoms: C_25  and  O_26
REMARK   27  A    between atoms: O_26  and  C_27
REMARK   28  A    between atoms: O_32  and  C_33
REMARK   29  A    between atoms: C_33  and  C_34
REMARK   30  A    between atoms: C_43  and  C_45
REMARK   31  A    between atoms: C_45  and  C_46
REMARK   32  A    between atoms: C_46  and  C_47
REMARK   33  A    between atoms: C_47  and  C_48
REMARK   34  A    between atoms: C_48  and  C_49
REMARK   35  A    between atoms: C_49  and  C_50
REMARK   36  A    between atoms: C_50  and  C_51
REMARK   37  A    between atoms: C_51  and  C_52
REMARK   38  A    between atoms: C_52  and  C_53
REMARK   39  A    between atoms: C_53  and  C_54
REMARK   40  A    between atoms: C_54  and  C_55
REMARK   41  A    between atoms: C_55  and  C_56
REMARK   42  A    between atoms: C_56  and  C_57
REMARK   43  A    between atoms: C_57  and  C_58
REMARK   44  A    between atoms: C_58  and  C_59
REMARK   45  A    between atoms: C_59  and  C_60
REMARK   46  A    between atoms: C_60  and  C_61
REMARK   47  A    between atoms: C_61  and  C_62
REMARK   48  A    between atoms: C_62  and  C_63
REMARK   49  A    between atoms: C_63  and  C_64
REMARK   50  A    between atoms: C_64  and  C_65
REMARK   51  A    between atoms: C_65  and  C_66
REMARK   52  A    between atoms: C_66  and  C_67
REMARK   53  A    between atoms: C_67  and  C_68
REMARK   54  A    between atoms: C_68  and  C_69
REMARK                            x       y       z     vdW  Elec       q    Type
REMARK                         _______ _______ _______ _____ _____    ______ ____
ROOT
ATOM      1  C   UNL     1      92.558 219.065 321.545  0.00  0.00    +0.000 C 
ENDROOT
BRANCH   1   2
ATOM      2  N   UNL     1      92.951 217.654 321.434  0.00  0.00    +0.000 N 
ATOM      3  C   UNL     1      92.587 216.765 322.383  0.00  0.00    +0.000 C 
ATOM      4  O   UNL     1      91.885 217.035 323.361  0.00  0.00    +0.000 OA
ATOM      5  H   UNL     1      93.503 217.344 320.634  0.00  0.00    +0.000 HD
BRANCH   3   6
ATOM      6  C   UNL     1      93.126 215.345 322.178  0.00  0.00    +0.000 C 
BRANCH   6   7
ATOM      7  C   UNL     1      92.031 214.302 322.413  0.00  0.00    +0.000 C 
BRANCH   7   8
ATOM      8  C   UNL     1      91.098 214.211 321.213  0.00  0.00    +0.000 C 
BRANCH   8   9
ATOM      9  C   UNL     1      89.966 213.243 321.584  0.00  0.00    +0.000 C 
BRANCH   9  10
ATOM     10  C   UNL     1      88.964 213.100 320.442  0.00  0.00    +0.000 C 
BRANCH  10  11
ATOM     11  C   UNL     1      87.915 212.062 320.884  0.00  0.00    +0.000 C 
BRANCH  11  12
ATOM     12  C   UNL     1      86.586 212.286 320.183  0.00  0.00    +0.000 C 
BRANCH  12  13
ATOM     13  C   UNL     1      85.533 211.328 320.778  0.00  0.00    +0.000 C 
BRANCH  13  14
ATOM     14  C   UNL     1      84.606 212.088 321.723  0.00  0.00    +0.000 C 
BRANCH  14  15
ATOM     15  C   UNL     1      83.474 211.174 322.191  0.00  0.00    +0.000 C 
BRANCH  15  16
ATOM     16  C   UNL     1      82.548 211.931 323.143  0.00  0.00    +0.000 C 
BRANCH  16  17
ATOM     17  C   UNL     1      83.137 211.978 324.552  0.00  0.00    +0.000 C 
BRANCH  17  18
ATOM     18  C   UNL     1      82.428 210.973 325.445  0.00  0.00    +0.000 C 
BRANCH  18  19
ATOM     19  C   UNL     1      83.188 210.851 326.764  0.00  0.00    +0.000 C 
BRANCH  19  20
ATOM     20  C   UNL     1      82.726 209.602 327.512  0.00  0.00    +0.000 C 
BRANCH  20  21
ATOM     21  C   UNL     1      83.825 208.539 327.465  0.00  0.00    +0.000 C 
BRANCH  21  22
ATOM     22  C   UNL     1      83.372 207.270 328.197  0.00  0.00    +0.000 C 
BRANCH  22  23
ATOM     23  C   UNL     1      84.560 206.338 328.441  0.00  0.00    +0.000 C 
BRANCH  23  24
ATOM     24  C   UNL     1      85.117 205.751 327.124  0.00  0.00    +0.000 C 
BRANCH  24  25
ATOM     25  C   UNL     1      86.448 206.410 326.776  0.00  0.00    +0.000 C 
BRANCH  25  26
ATOM     26  C   UNL     1      87.485 205.423 326.214  0.00  0.00    +0.000 C 
BRANCH  26  27
ATOM     27  C   UNL     1      87.222 205.011 324.757  0.00  0.00    +0.000 C 
BRANCH  27  28
ATOM     28  C   UNL     1      86.857 206.193 323.870  0.00  0.00    +0.000 C 
BRANCH  28  29
ATOM     29  C   UNL     1      87.055 205.811 322.407  0.00  0.00    +0.000 C 
ATOM     30  C   UNL     1      86.606 206.964 321.512  0.00  0.00    +0.000 C 
ENDBRANCH  28  29
ENDBRANCH  27  28
ENDBRANCH  26  27
ENDBRANCH  25  26
ENDBRANCH  24  25
ENDBRANCH  23  24
ENDBRANCH  22  23
ENDBRANCH  21  22
ENDBRANCH  20  21
ENDBRANCH  19  20
ENDBRANCH  18  19
ENDBRANCH  17  18
ENDBRANCH  16  17
ENDBRANCH  15  16
ENDBRANCH  14  15
ENDBRANCH  13  14
ENDBRANCH  12  13
ENDBRANCH  11  12
ENDBRANCH  10  11
ENDBRANCH   9  10
ENDBRANCH   8   9
ENDBRANCH   7   8
ENDBRANCH   6   7
ENDBRANCH   3   6
ENDBRANCH   1   2
BRANCH   1  31
ATOM     31  C   UNL     1      92.542 219.743 320.177  0.00  0.00    +0.000 C 
BRANCH  31  32
ATOM     32  O   UNL     1      92.126 221.089 320.368  0.00  0.00    +0.000 OA
ATOM     33  H   UNL     1      92.711 221.517 320.997  0.00  0.00    +0.000 HD
ENDBRANCH  31  32
BRANCH  31  34
ATOM     34  C   UNL     1      91.610 219.043 319.168  0.00  0.00    +0.000 C 
BRANCH  34  35
ATOM     35  O   UNL     1      91.654 219.779 317.926  0.00  0.00    +0.000 OA
ATOM     36  H   UNL     1      92.561 219.823 317.613  0.00  0.00    +0.000 HD
ENDBRANCH  34  35
BRANCH  34  37
ATOM     37  C   UNL     1      90.169 218.955 319.694  0.00  0.00    +0.000 C 
BRANCH  37  38
ATOM     38  C   UNL     1      89.182 218.558 318.569  0.00  0.00    +0.000 C 
BRANCH  38  39
ATOM     39  C   UNL     1      89.487 217.150 318.033  0.00  0.00    +0.000 C 
BRANCH  39  40
ATOM     40  C   UNL     1      88.273 216.561 317.278  0.00  0.00    +0.000 C 
BRANCH  40  41
ATOM     41  C   UNL     1      88.084 217.241 315.919  0.00  0.00    +0.000 C 
BRANCH  41  42
ATOM     42  C   UNL     1      86.967 216.507 315.137  0.00  0.00    +0.000 C 
BRANCH  42  43
ATOM     43  C   UNL     1      86.943 216.963 313.676  0.00  0.00    +0.000 C 
BRANCH  43  44
ATOM     44  C   UNL     1      86.125 218.245 313.573  0.00  0.00    +0.000 C 
BRANCH  44  45
ATOM     45  C   UNL     1      85.993 218.705 312.119  0.00  0.00    +0.000 C 
BRANCH  45  46
ATOM     46  C   UNL     1      85.401 220.109 312.197  0.00  0.00    +0.000 C 
BRANCH  46  47
ATOM     47  C   UNL     1      85.168 220.713 310.823  0.00  0.00    +0.000 C 
BRANCH  47  48
ATOM     48  C   UNL     1      84.178 221.878 310.967  0.00  0.00    +0.000 C 
BRANCH  48  50
ATOM     49  C   UNL     1      83.736 224.290 310.446  0.00  0.00    +0.000 C 
ATOM     50  C   UNL     1      84.730 223.127 310.305  0.00  0.00    +0.000 C 
ENDBRANCH  48  50
ENDBRANCH  47  48
ENDBRANCH  46  47
ENDBRANCH  45  46
ENDBRANCH  44  45
ENDBRANCH  43  44
ENDBRANCH  42  43
ENDBRANCH  41  42
ENDBRANCH  40  41
ENDBRANCH  39  40
ENDBRANCH  38  39
ENDBRANCH  37  38
ENDBRANCH  34  37
ENDBRANCH  31  34
ENDBRANCH   1  31
BRANCH   1  51
ATOM     51  C   UNL     1      93.584 219.770 322.440  0.00  0.00    +0.000 C 
BRANCH  51  52
ATOM     52  O   UNL     1      94.871 219.600 321.841  0.00  0.00    +0.000 OA
BRANCH  52  57
ATOM     53  C   UNL     1      97.774 218.087 322.957  0.00  0.00    +0.000 C 
ATOM     54  C   UNL     1      97.547 218.684 321.570  0.00  0.00    +0.000 C 
ATOM     55  C   UNL     1      97.173 220.160 321.716  0.00  0.00    +0.000 C 
ATOM     56  O   UNL     1      96.123 219.639 323.838  0.00  0.00    +0.000 OA
ATOM     57  C   UNL     1      95.919 220.262 322.545  0.00  0.00    +0.000 C 
ATOM     58  C   UNL     1      96.487 218.263 323.784  0.00  0.00    +0.000 C 
BRANCH  55  59
ATOM     59  O   UNL     1      96.958 220.770 320.418  0.00  0.00    +0.000 OA
ATOM     60  H   UNL     1      97.761 220.701 319.896  0.00  0.00    +0.000 HD
ENDBRANCH  55  59
BRANCH  54  61
ATOM     61  O   UNL     1      98.740 218.573 320.789  0.00  0.00    +0.000 OA
ATOM     62  H   UNL     1      98.976 217.647 320.697  0.00  0.00    +0.000 HD
ENDBRANCH  54  61
BRANCH  58  63
ATOM     63  C   UNL     1      96.635 217.801 325.248  0.00  0.00    +0.000 C 
BRANCH  63  64
ATOM     64  O   UNL     1      97.027 216.420 325.290  0.00  0.00    +0.000 OA
ATOM     65  H   UNL     1      97.117 216.142 326.204  0.00  0.00    +0.000 HD
ENDBRANCH  63  64
ENDBRANCH  58  63
BRANCH  53  66
ATOM     66  O   UNL     1      98.894 218.784 323.545  0.00  0.00    +0.000 OA
BRANCH  66  67
ATOM     67  C   UNL     1      99.775 218.030 324.408  0.00  0.00    +0.000 C 
BRANCH  67  68
ATOM     68  C   UNL     1     100.583 217.135 323.699  0.00  0.00    +0.000 A 
ATOM     69  C   UNL     1     100.280 215.771 323.715  0.00  0.00    +0.000 A 
ATOM     70  C   UNL     1     101.087 214.875 323.025  0.00  0.00    +0.000 A 
ATOM     71 CL   UNL     1     100.709 213.182 323.038  0.00  0.00    +0.000 Cl
ATOM     72  C   UNL     1     102.199 215.333 322.325  0.00  0.00    +0.000 A 
ATOM     73 CL   UNL     1     103.181 214.184 321.466  0.00  0.00    +0.000 Cl
ATOM     74  C   UNL     1     102.508 216.692 322.309  0.00  0.00    +0.000 A 
ATOM     75  C   UNL     1     101.701 217.596 322.998  0.00  0.00    +0.000 A 
ENDBRANCH  67  68
ENDBRANCH  66  67
ENDBRANCH  53  66
ENDBRANCH  52  57
ENDBRANCH  51  52
ENDBRANCH   1  51
TORSDOF 52
