REMARK  Name = 6gj5_ligand
REMARK  2 active torsions:
REMARK  status: ('A' for Active; 'I' for Inactive)
REMARK    1  A    between atoms: C_6  and  C_14
REMARK    2  A    between atoms: C_18  and  C_23
REMARK                            x       y       z     vdW  Elec       q    Type
REMARK                         _______ _______ _______ _____ _____    ______ ____
ROOT
ATOM      1  N   UNL     1     -21.701 -26.007 -14.244  0.00  0.00    +0.000 NA
ATOM      2  C   UNL     1     -21.683 -26.580 -16.470  0.00  0.00    +0.000 C 
ATOM      3  C   UNL     1     -21.545 -24.839 -14.912  0.00  0.00    +0.000 A 
ATOM      4  C   UNL     1     -21.257 -22.777 -16.807  0.00  0.00    +0.000 A 
ATOM      5  C   UNL     1     -21.529 -25.109 -16.369  0.00  0.00    +0.000 A 
ATOM      6  C   UNL     1     -21.413 -23.519 -14.487  0.00  0.00    +0.000 A 
ATOM      7  C   UNL     1     -21.274 -22.505 -15.436  0.00  0.00    +0.000 A 
ATOM      8  C   UNL     1     -21.385 -24.080 -17.291  0.00  0.00    +0.000 A 
ATOM      9  C   UNL     1     -21.779 -27.072 -15.078  0.00  0.00    +0.000 C 
ENDROOT
BRANCH   2  17
ATOM     10  C   UNL     1     -20.518 -26.019 -21.069  0.00  0.00    +0.000 A 
ATOM     11  C   UNL     1     -19.137 -26.055 -20.885  0.00  0.00    +0.000 A 
ATOM     12  C   UNL     1     -18.550 -26.495 -19.692  0.00  0.00    +0.000 A 
ATOM     13  C   UNL     1     -19.318 -26.922 -18.606  0.00  0.00    +0.000 A 
ATOM     14  N   UNL     1     -23.011 -27.046 -18.469  0.00  0.00    +0.000 N 
ATOM     15  C   UNL     1     -22.729 -26.577 -19.706  0.00  0.00    +0.000 C 
ATOM     16  O   UNL     1     -23.640 -26.277 -20.561  0.00  0.00    +0.000 OA
ATOM     17  C   UNL     1     -21.722 -27.284 -17.785  0.00  0.00    +0.000 C 
ATOM     18  C   UNL     1     -20.691 -26.889 -18.746  0.00  0.00    +0.000 A 
ATOM     19  C   UNL     1     -21.286 -26.436 -20.001  0.00  0.00    +0.000 A 
ATOM     20  H   UNL     1     -23.940 -27.206 -18.080  0.00  0.00    +0.000 HD
ENDBRANCH   2  17
BRANCH   9  22
ATOM     21  C   UNL     1     -20.913 -28.932 -13.682  0.00  0.00    +0.000 C 
ATOM     22  C   UNL     1     -21.963 -28.484 -14.678  0.00  0.00    +0.000 C 
ATOM     23  C   UNL     1     -21.629 -29.960 -12.816  0.00  0.00    +0.000 C 
ATOM     24  C   UNL     1     -23.117 -29.658 -12.941  0.00  0.00    +0.000 C 
ATOM     25  N   UNL     1     -23.267 -28.632 -13.996  0.00  0.00    +0.000 N 
ATOM     26  H   UNL     1     -23.984 -28.915 -14.664  0.00  0.00    +0.000 HD
ATOM     27  H   UNL     1     -23.553 -27.743 -13.585  0.00  0.00    +0.000 HD
ENDBRANCH   9  22
TORSDOF 2
