REMARK  Name = 6oxu_ligand
REMARK  19 active torsions:
REMARK  status: ('A' for Active; 'I' for Inactive)
REMARK    1  A    between atoms: C_1  and  C_2
REMARK    2  A    between atoms: C_1  and  C_16
REMARK    3  A    between atoms: C_1  and  O_35
REMARK    4  A    between atoms: C_2  and  C_8
REMARK    5  A    between atoms: C_2  and  N_32
REMARK    6  A    between atoms: C_3  and  O_37
REMARK    7  A    between atoms: C_4  and  O_37
REMARK    8  A    between atoms: C_8  and  C_19
REMARK    9  A    between atoms: C_9  and  C_30
REMARK   10  A    between atoms: C_12  and  S_41
REMARK   11  A    between atoms: C_15  and  C_27
REMARK   12  A    between atoms: C_15  and  N_31
REMARK   13  A    between atoms: C_16  and  N_31
REMARK   14  A    between atoms: C_25  and  C_30
REMARK   15  A    between atoms: C_26  and  C_28
REMARK   16  A    between atoms: C_27  and  C_28
REMARK   17  A    between atoms: C_27  and  C_29
REMARK   18  A    between atoms: C_30  and  O_40
REMARK   19  A    between atoms: N_31  and  S_41
REMARK                            x       y       z     vdW  Elec       q    Type
REMARK                         _______ _______ _______ _____ _____    ______ ____
ROOT
ATOM      1  C   UNL     1      71.104  57.561  14.901  0.00  0.00    +0.000 C 
ENDROOT
BRANCH   1   2
ATOM      2  O   UNL     1      70.958  58.735  14.171  0.00  0.00    +0.000 OA
ATOM      3  H   UNL     1      71.532  59.412  14.537  0.00  0.00    +0.000 HD
ENDBRANCH   1   2
BRANCH   1   4
ATOM      4  C   UNL     1      70.189  56.446  14.335  0.00  0.00    +0.000 C 
BRANCH   4   5
ATOM      5  N   UNL     1      70.556  55.170  15.014  0.00  0.00    +0.000 NA
BRANCH   5   8
ATOM      6  O   UNL     1      68.528  55.619  16.593  0.00  0.00    +0.000 OA
ATOM      7  O   UNL     1      69.921  53.788  17.166  0.00  0.00    +0.000 OA
ATOM      8  S   UNL     1      69.348  54.544  16.069  0.00  0.00    +0.000 S 
BRANCH   8  12
ATOM      9  C   UNL     1      66.768  51.569  13.431  0.00  0.00    +0.000 A 
ATOM     10  C   UNL     1      67.821  50.974  14.352  0.00  0.00    +0.000 A 
ATOM     11  C   UNL     1      68.617  51.933  15.206  0.00  0.00    +0.000 A 
ATOM     12  C   UNL     1      68.364  53.427  15.072  0.00  0.00    +0.000 A 
ATOM     13  C   UNL     1      67.327  54.044  14.146  0.00  0.00    +0.000 A 
ATOM     14  C   UNL     1      66.525  53.072  13.302  0.00  0.00    +0.000 A 
BRANCH   9  16
ATOM     15  C   UNL     1      64.475  50.994  12.686  0.00  0.00    +0.000 C 
ATOM     16  C   UNL     1      65.955  50.656  12.546  0.00  0.00    +0.000 C 
BRANCH  16  17
ATOM     17  O   UNL     1      66.374  50.950  11.254  0.00  0.00    +0.000 OA
ATOM     18  H   UNL     1      65.894  50.401  10.630  0.00  0.00    +0.000 HD
ENDBRANCH  16  17
ENDBRANCH   9  16
ENDBRANCH   8  12
ENDBRANCH   5   8
BRANCH   5  19
ATOM     19  C   UNL     1      71.345  54.122  14.304  0.00  0.00    +0.000 C 
BRANCH  19  20
ATOM     20  C   UNL     1      72.840  54.471  14.311  0.00  0.00    +0.000 C 
ATOM     21  C   UNL     1      73.418  54.474  15.730  0.00  0.00    +0.000 C 
BRANCH  20  23
ATOM     22  C   UNL     1      73.640  52.070  14.065  0.00  0.00    +0.000 C 
ATOM     23  C   UNL     1      73.536  53.455  13.391  0.00  0.00    +0.000 C 
ENDBRANCH  20  23
ENDBRANCH  19  20
ENDBRANCH   5  19
ENDBRANCH   4   5
ENDBRANCH   1   4
BRANCH   1  24
ATOM     24  C   UNL     1      70.716  57.860  16.342  0.00  0.00    +0.000 C 
BRANCH  24  26
ATOM     25  C   UNL     1      72.674  58.400  17.920  0.00  0.00    +0.000 C 
ATOM     26  N   UNL     1      71.693  58.788  16.896  0.00  0.00    +0.000 N 
ATOM     27  O   UNL     1      72.684  57.326  18.466  0.00  0.00    +0.000 OA
ATOM     28  H   UNL     1      71.697  59.750  16.558  0.00  0.00    +0.000 HD
BRANCH  25  29
ATOM     29  O   UNL     1      73.610  59.445  18.172  0.00  0.00    +0.000 OA
BRANCH  29  30
ATOM     30  C   UNL     1      74.511  59.343  19.356  0.00  0.00    +0.000 C 
ATOM     31  C   UNL     1      75.653  59.778  18.981  0.00  0.00    +0.000 C 
ATOM     32  C   UNL     1      74.646  61.677  19.913  0.00  0.00    +0.000 C 
ATOM     33  C   UNL     1      72.354  61.779  19.460  0.00  0.00    +0.000 C 
ATOM     34  C   UNL     1      74.022  60.361  20.419  0.00  0.00    +0.000 C 
ATOM     35  C   UNL     1      72.665  60.530  20.447  0.00  0.00    +0.000 C 
ATOM     36  O   UNL     1      75.425  61.397  18.908  0.00  0.00    +0.000 OA
ATOM     37  O   UNL     1      73.416  62.563  19.505  0.00  0.00    +0.000 OA
ENDBRANCH  29  30
ENDBRANCH  25  29
ENDBRANCH  24  26
BRANCH  24  38
ATOM     38  C   UNL     1      69.368  58.583  16.374  0.00  0.00    +0.000 C 
BRANCH  38  39
ATOM     39  C   UNL     1      69.145  59.029  17.836  0.00  0.00    +0.000 A 
ATOM     40  C   UNL     1      68.790  57.975  18.869  0.00  0.00    +0.000 A 
ATOM     41  C   UNL     1      68.574  58.378  20.328  0.00  0.00    +0.000 A 
ATOM     42  C   UNL     1      68.713  59.837  20.733  0.00  0.00    +0.000 A 
ATOM     43  C   UNL     1      69.082  60.894  19.688  0.00  0.00    +0.000 A 
ATOM     44  C   UNL     1      69.282  60.493  18.232  0.00  0.00    +0.000 A 
ENDBRANCH  38  39
ENDBRANCH  24  38
ENDBRANCH   1  24
TORSDOF 16
