REMARK  Name = 6qra_ligand
REMARK  5 active torsions:
REMARK  status: ('A' for Active; 'I' for Inactive)
REMARK    1  A    between atoms: C_3  and  N_21
REMARK    2  A    between atoms: C_3  and  C_22
REMARK    3  A    between atoms: C_5  and  C_24
REMARK    4  A    between atoms: C_5  and  N_25
REMARK    5  A    between atoms: C_14  and  C_15
REMARK                            x       y       z     vdW  Elec       q    Type
REMARK                         _______ _______ _______ _____ _____    ______ ____
ROOT
ATOM      1  C   UNL     1     -24.086 -19.205  11.742  0.00  0.00    +0.000 A 
ATOM      2  C   UNL     1     -24.717 -22.814  11.159  0.00  0.00    +0.000 A 
ATOM      3  C   UNL     1     -21.735 -19.532  12.278  0.00  0.00    +0.000 A 
ATOM      4  C   UNL     1     -21.815 -20.917  12.066  0.00  0.00    +0.000 A 
ATOM      5  C   UNL     1     -23.083 -21.452  11.704  0.00  0.00    +0.000 A 
ATOM      6  C   UNL     1     -24.182 -20.618  11.551  0.00  0.00    +0.000 A 
ATOM      7  C   UNL     1     -22.837 -18.654  12.101  0.00  0.00    +0.000 A 
ATOM      8  C   UNL     1     -25.227 -21.467  11.189  0.00  0.00    +0.000 A 
ATOM      9  N   UNL     1     -23.463 -22.768  11.453  0.00  0.00    +0.000 N 
ENDROOT
BRANCH   3  14
ATOM     10  N   UNL     1     -17.771 -16.438  12.769  0.00  0.00    +0.000 N 
ATOM     11  C   UNL     1     -18.628 -17.592  12.727  0.00  0.00    +0.000 C 
ATOM     12  N   UNL     1     -18.217 -18.892  12.954  0.00  0.00    +0.000 NA
ATOM     13  N   UNL     1     -19.325 -19.731  12.833  0.00  0.00    +0.000 NA
ATOM     14  C   UNL     1     -20.398 -18.991  12.572  0.00  0.00    +0.000 C 
ATOM     15  C   UNL     1     -20.013 -17.627  12.444  0.00  0.00    +0.000 C 
ATOM     16  H   UNL     1     -16.779 -16.547  12.979  0.00  0.00    +0.000 HD
ATOM     17  H   UNL     1     -18.155 -15.511  12.589  0.00  0.00    +0.000 HD
ENDBRANCH   3  14
BRANCH   9  18
ATOM     18  C   UNL     1     -22.547 -23.928  11.549  0.00  0.00    +0.000 C 
BRANCH  18  21
ATOM     19  C   UNL     1     -21.850 -23.482   9.028  0.00  0.00    +0.000 A 
ATOM     20  C   UNL     1     -21.237 -25.535  10.227  0.00  0.00    +0.000 A 
ATOM     21  C   UNL     1     -21.853 -24.328  10.245  0.00  0.00    +0.000 A 
ATOM     22  C   UNL     1     -21.215 -23.909   7.906  0.00  0.00    +0.000 A 
ATOM     23  C   UNL     1     -20.547 -25.187   7.895  0.00  0.00    +0.000 A 
ATOM     24  C   UNL     1     -20.573 -25.988   9.048  0.00  0.00    +0.000 A 
BRANCH  23  25
ATOM     25  C   UNL     1     -19.815 -25.710   6.640  0.00  0.00    +0.000 C 
BRANCH  25  29
ATOM     26  C   UNL     1     -18.286 -25.498   5.084  0.00  0.00    +0.000 C 
ATOM     27  C   UNL     1     -16.010 -24.863   5.800  0.00  0.00    +0.000 C 
ATOM     28  C   UNL     1     -17.824 -24.967   7.447  0.00  0.00    +0.000 C 
ATOM     29  N   UNL     1     -18.772 -25.085   6.353  0.00  0.00    +0.000 N 
ATOM     30  C   UNL     1     -16.769 -25.673   4.914  0.00  0.00    +0.000 C 
ATOM     31  C   UNL     1     -16.352 -25.210   7.140  0.00  0.00    +0.000 C 
ATOM     32  H   UNL     1     -18.995 -24.097   6.229  0.00  0.00    +0.000 HD
ENDBRANCH  25  29
ENDBRANCH  23  25
ENDBRANCH  18  21
ENDBRANCH   9  18
TORSDOF 5
