REMARK  Name = 6oxp_ligand
REMARK  18 active torsions:
REMARK  status: ('A' for Active; 'I' for Inactive)
REMARK    1  A    between atoms: C_1  and  O_2
REMARK    2  A    between atoms: C_1  and  C_3
REMARK    3  A    between atoms: C_6  and  S_9
REMARK    4  A    between atoms: S_9  and  N_12
REMARK    5  A    between atoms: N_12  and  C_13
REMARK    6  A    between atoms: N_12  and  C_17
REMARK    7  A    between atoms: C_13  and  C_14
REMARK    8  A    between atoms: C_14  and  C_15
REMARK    9  A    between atoms: C_14  and  C_16
REMARK   10  A    between atoms: C_16  and  C_19
REMARK   11  A    between atoms: C_17  and  C_18
REMARK   12  A    between atoms: C_18  and  O_20
REMARK   13  A    between atoms: C_18  and  C_21
REMARK   14  A    between atoms: C_21  and  N_22
REMARK   15  A    between atoms: C_21  and  C_34
REMARK   16  A    between atoms: C_23  and  O_25
REMARK   17  A    between atoms: O_25  and  C_26
REMARK   18  A    between atoms: C_34  and  C_40
REMARK                            x       y       z     vdW  Elec       q    Type
REMARK                         _______ _______ _______ _____ _____    ______ ____
ROOT
ATOM      1  C   UNL     1      71.096  57.658  15.068  0.00  0.00    +0.000 C 
ENDROOT
BRANCH   1   2
ATOM      2  O   UNL     1      70.973  58.780  14.242  0.00  0.00    +0.000 OA
ATOM      3  H   UNL     1      71.531  59.485  14.577  0.00  0.00    +0.000 HD
ENDBRANCH   1   2
BRANCH   1   4
ATOM      4  C   UNL     1      70.206  56.538  14.532  0.00  0.00    +0.000 C 
BRANCH   4   5
ATOM      5  N   UNL     1      70.527  55.290  15.197  0.00  0.00    +0.000 NA
BRANCH   5   6
ATOM      6  S   UNL     1      69.332  54.679  16.246  0.00  0.00    +0.000 S 
ATOM      7  O   UNL     1      68.552  55.743  16.873  0.00  0.00    +0.000 OA
ATOM      8  O   UNL     1      69.916  53.916  17.352  0.00  0.00    +0.000 OA
BRANCH   6  12
ATOM      9  C   UNL     1      66.483  51.852  13.666  0.00  0.00    +0.000 A 
ATOM     10  C   UNL     1      67.596  51.235  14.497  0.00  0.00    +0.000 A 
ATOM     11  C   UNL     1      68.494  52.136  15.318  0.00  0.00    +0.000 A 
ATOM     12  C   UNL     1      68.257  53.632  15.271  0.00  0.00    +0.000 A 
ATOM     13  C   UNL     1      67.153  54.265  14.441  0.00  0.00    +0.000 A 
ATOM     14  C   UNL     1      66.259  53.358  13.619  0.00  0.00    +0.000 A 
BRANCH   9  15
ATOM     15  C   UNL     1      65.593  50.948  12.838  0.00  0.00    +0.000 C 
BRANCH  15  16
ATOM     16  O   UNL     1      66.094  51.004  11.539  0.00  0.00    +0.000 OA
ATOM     17  H   UNL     1      65.563  50.444  10.968  0.00  0.00    +0.000 HD
ENDBRANCH  15  16
ENDBRANCH   9  15
ENDBRANCH   6  12
ENDBRANCH   5   6
BRANCH   5  18
ATOM     18  C   UNL     1      71.247  54.260  14.462  0.00  0.00    +0.000 C 
BRANCH  18  19
ATOM     19  C   UNL     1      72.746  54.537  14.488  0.00  0.00    +0.000 C 
ATOM     20  C   UNL     1      73.266  54.497  15.924  0.00  0.00    +0.000 C 
BRANCH  19  21
ATOM     21  C   UNL     1      73.450  53.488  13.623  0.00  0.00    +0.000 C 
ATOM     22  C   UNL     1      73.366  52.090  14.232  0.00  0.00    +0.000 C 
ENDBRANCH  19  21
ENDBRANCH  18  19
ENDBRANCH   5  18
ENDBRANCH   4   5
ENDBRANCH   1   4
BRANCH   1  23
ATOM     23  C   UNL     1      70.709  58.039  16.498  0.00  0.00    +0.000 C 
BRANCH  23  24
ATOM     24  N   UNL     1      71.674  59.000  16.979  0.00  0.00    +0.000 N 
ATOM     25  C   UNL     1      72.674  58.660  17.956  0.00  0.00    +0.000 C 
ATOM     26  O   UNL     1      72.697  57.597  18.502  0.00  0.00    +0.000 OA
ATOM     27  H   UNL     1      71.646  59.952  16.614  0.00  0.00    +0.000 HD
BRANCH  25  28
ATOM     28  O   UNL     1      73.607  59.676  18.192  0.00  0.00    +0.000 OA
BRANCH  28  29
ATOM     29  C   UNL     1      74.541  59.553  19.348  0.00  0.00    +0.000 C 
ATOM     30  C   UNL     1      75.644  59.919  18.982  0.00  0.00    +0.000 C 
ATOM     31  O   UNL     1      75.511  61.437  18.937  0.00  0.00    +0.000 OA
ATOM     32  C   UNL     1      74.570  61.737  20.074  0.00  0.00    +0.000 C 
ATOM     33  O   UNL     1      73.305  62.650  19.536  0.00  0.00    +0.000 OA
ATOM     34  C   UNL     1      72.239  61.920  19.573  0.00  0.00    +0.000 C 
ATOM     35  C   UNL     1      72.540  60.809  20.548  0.00  0.00    +0.000 C 
ATOM     36  C   UNL     1      74.115  60.644  20.475  0.00  0.00    +0.000 C 
ENDBRANCH  28  29
ENDBRANCH  25  28
ENDBRANCH  23  24
BRANCH  23  37
ATOM     37  C   UNL     1      69.342  58.714  16.567  0.00  0.00    +0.000 C 
BRANCH  37  43
ATOM     38  C   UNL     1      68.786  58.190  19.097  0.00  0.00    +0.000 A 
ATOM     39  C   UNL     1      68.569  58.665  20.531  0.00  0.00    +0.000 A 
ATOM     40  C   UNL     1      68.691  60.148  20.866  0.00  0.00    +0.000 A 
ATOM     41  C   UNL     1      69.028  61.151  19.768  0.00  0.00    +0.000 A 
ATOM     42  C   UNL     1      69.245  60.674  18.335  0.00  0.00    +0.000 A 
ATOM     43  C   UNL     1      69.119  59.195  18.001  0.00  0.00    +0.000 A 
ENDBRANCH  37  43
ENDBRANCH  23  37
ENDBRANCH   1  23
TORSDOF 16
