REMARK  Name = 6qgf_ligand
REMARK  13 active torsions:
REMARK  status: ('A' for Active; 'I' for Inactive)
REMARK    1  A    between atoms: C_1  and  C_5
REMARK    2  A    between atoms: C_7  and  O_35
REMARK    3  A    between atoms: C_8  and  N_30
REMARK    4  A    between atoms: C_9  and  O_37
REMARK    5  A    between atoms: C_10  and  C_19
REMARK    6  A    between atoms: C_10  and  S_39
REMARK    7  A    between atoms: C_11  and  C_21
REMARK    8  A    between atoms: C_16  and  C_18
REMARK    9  A    between atoms: C_17  and  S_39
REMARK   10  A    between atoms: C_18  and  O_36
REMARK   11  A    between atoms: C_19  and  C_20
REMARK   12  A    between atoms: C_19  and  O_38
REMARK   13  A    between atoms: C_20  and  N_31
REMARK                            x       y       z     vdW  Elec       q    Type
REMARK                         _______ _______ _______ _____ _____    ______ ____
ROOT
ATOM      1  C   UNL     1     -18.372   6.573  -0.844  0.00  0.00    +0.000 C 
ATOM      2  C   UNL     1     -17.872   7.796  -1.649  0.00  0.00    +0.000 C 
ATOM      3  C   UNL     1     -18.689   9.055  -1.255  0.00  0.00    +0.000 C 
ATOM      4  C   UNL     1     -19.882   6.440  -1.091  0.00  0.00    +0.000 C 
ATOM      5  C   UNL     1     -20.159   8.760  -1.481  0.00  0.00    +0.000 C 
ATOM      6  O   UNL     1     -20.509   7.639  -0.677  0.00  0.00    +0.000 OA
ENDROOT
BRANCH   2  11
ATOM      7  C   UNL     1     -14.362   8.315  -0.804  0.00  0.00    +0.000 A 
ATOM      8  C   UNL     1     -15.701   8.281  -0.427  0.00  0.00    +0.000 A 
ATOM      9  N   UNL     1     -14.366   7.971  -2.158  0.00  0.00    +0.000 NA
ATOM     10  N   UNL     1     -15.555   7.784  -2.583  0.00  0.00    +0.000 NA
ATOM     11  N   UNL     1     -16.433   7.954  -1.550  0.00  0.00    +0.000 N 
BRANCH   7  12
ATOM     12  C   UNL     1     -13.185   8.563  -0.055  0.00  0.00    +0.000 A 
ATOM     13  C   UNL     1     -11.941   8.772  -0.672  0.00  0.00    +0.000 A 
ATOM     14  C   UNL     1     -10.773   9.014   1.457  0.00  0.00    +0.000 A 
ATOM     15  C   UNL     1     -12.016   8.779   2.039  0.00  0.00    +0.000 A 
ATOM     16  C   UNL     1     -13.197   8.526   1.339  0.00  0.00    +0.000 A 
ATOM     17  C   UNL     1     -10.771   8.997   0.061  0.00  0.00    +0.000 A 
ATOM     18  F   UNL     1     -12.043   8.727   3.386  0.00  0.00    +0.000 F 
ENDBRANCH   7  12
ENDBRANCH   2  11
BRANCH   1  19
ATOM     19  O   UNL     1     -18.140   6.807   0.550  0.00  0.00    +0.000 OA
ATOM     20  H   UNL     1     -18.448   6.051   1.056  0.00  0.00    +0.000 HD
ENDBRANCH   1  19
BRANCH   3  21
ATOM     21  O   UNL     1     -18.219  10.044  -2.134  0.00  0.00    +0.000 OA
ATOM     22  H   UNL     1     -18.677  10.870  -1.959  0.00  0.00    +0.000 HD
ENDBRANCH   3  21
BRANCH   4  23
ATOM     23  C   UNL     1     -20.415   5.295  -0.192  0.00  0.00    +0.000 C 
BRANCH  23  24
ATOM     24  O   UNL     1     -21.776   5.129  -0.507  0.00  0.00    +0.000 OA
ATOM     25  H   UNL     1     -22.144   4.425   0.032  0.00  0.00    +0.000 HD
ENDBRANCH  23  24
ENDBRANCH   4  23
BRANCH   5  26
ATOM     26  S   UNL     1     -21.093  10.162  -0.826  0.00  0.00    +0.000 S 
BRANCH  26  27
ATOM     27  C   UNL     1     -22.766   9.636  -1.175  0.00  0.00    +0.000 C 
BRANCH  27  28
ATOM     28  C   UNL     1     -23.749   9.928  -0.053  0.00  0.00    +0.000 C 
BRANCH  28  29
ATOM     29  O   UNL     1     -23.357   9.237   1.103  0.00  0.00    +0.000 OA
ATOM     30  H   UNL     1     -23.978   9.422   1.811  0.00  0.00    +0.000 HD
ENDBRANCH  28  29
BRANCH  28  31
ATOM     31  C   UNL     1     -25.119   9.377  -0.503  0.00  0.00    +0.000 C 
BRANCH  31  34
ATOM     32  C   UNL     1     -27.851   9.637   1.920  0.00  0.00    +0.000 A 
ATOM     33  C   UNL     1     -26.807   8.925   1.352  0.00  0.00    +0.000 A 
ATOM     34  N   UNL     1     -26.242   9.725   0.348  0.00  0.00    +0.000 N 
ATOM     35  N   UNL     1     -26.956  10.886   0.305  0.00  0.00    +0.000 NA
ATOM     36  N   UNL     1     -27.864  10.849   1.211  0.00  0.00    +0.000 NA
BRANCH  32  37
ATOM     37  C   UNL     1     -28.785   9.305   3.000  0.00  0.00    +0.000 A 
ATOM     38  C   UNL     1     -30.782   9.752   4.325  0.00  0.00    +0.000 A 
ATOM     39  C   UNL     1     -29.498   7.853   4.848  0.00  0.00    +0.000 A 
ATOM     40  C   UNL     1     -29.912  10.093   3.290  0.00  0.00    +0.000 A 
ATOM     41  C   UNL     1     -30.616   8.624   5.137  0.00  0.00    +0.000 A 
ATOM     42  C   UNL     1     -28.619   8.181   3.807  0.00  0.00    +0.000 A 
ATOM     43  F   UNL     1     -31.841  10.537   4.556  0.00  0.00    +0.000 F 
ENDBRANCH  32  37
ENDBRANCH  31  34
ENDBRANCH  28  31
ENDBRANCH  27  28
ENDBRANCH  26  27
ENDBRANCH   5  26
TORSDOF 13
