REMARK  Name = 6mo9_ligand
REMARK  6 active torsions:
REMARK  status: ('A' for Active; 'I' for Inactive)
REMARK    1  A    between atoms: C_3  and  C_7
REMARK    2  A    between atoms: C_5  and  S_8
REMARK    3  A    between atoms: S_8  and  N_9
REMARK    4  A    between atoms: N_9  and  C_18
REMARK    5  A    between atoms: C_12  and  C_17
REMARK    6  A    between atoms: C_15  and  C_16
REMARK                            x       y       z     vdW  Elec       q    Type
REMARK                         _______ _______ _______ _____ _____    ______ ____
ROOT
ATOM      1  C   UNL     1     112.063   8.058  14.946  0.00  0.00    +0.000 A 
ATOM      2  C   UNL     1     112.870   8.490  13.900  0.00  0.00    +0.000 A 
ATOM      3  C   UNL     1     112.980   7.760  12.715  0.00  0.00    +0.000 A 
ATOM      4  C   UNL     1     112.274   6.571  12.557  0.00  0.00    +0.000 A 
ATOM      5  C   UNL     1     111.454   6.107  13.595  0.00  0.00    +0.000 A 
ATOM      6  C   UNL     1     111.339   6.842  14.815  0.00  0.00    +0.000 A 
ATOM      7  N   UNL     1     112.023   8.836  16.044  0.00  0.00    +0.000 NA
ATOM      8  C   UNL     1     111.255   8.451  17.087  0.00  0.00    +0.000 A 
ATOM      9  C   UNL     1     110.505   7.293  17.083  0.00  0.00    +0.000 A 
ATOM     10  C   UNL     1     110.546   6.490  15.942  0.00  0.00    +0.000 A 
ENDROOT
BRANCH   3  11
ATOM     11  C   UNL     1     113.821   8.239  11.643  0.00  0.00    +0.000 A 
ATOM     12  C   UNL     1     114.739   7.475  10.954  0.00  0.00    +0.000 A 
ATOM     13  O   UNL     1     115.340   8.257  10.008  0.00  0.00    +0.000 OA
ATOM     14  N   UNL     1     114.825   9.544  10.063  0.00  0.00    +0.000 NA
ATOM     15  C   UNL     1     113.913   9.523  11.050  0.00  0.00    +0.000 A 
ATOM     16  C   UNL     1     113.154  10.739  11.408  0.00  0.00    +0.000 C 
ATOM     17  C   UNL     1     115.171   6.068  11.033  0.00  0.00    +0.000 C 
ENDBRANCH   3  11
BRANCH   5  18
ATOM     18  S   UNL     1     110.606   4.558  13.316  0.00  0.00    +0.000 S 
ATOM     19  O   UNL     1     110.977   3.703  14.417  0.00  0.00    +0.000 OA
ATOM     20  O   UNL     1     110.879   4.099  11.972  0.00  0.00    +0.000 OA
BRANCH  18  21
ATOM     21  N   UNL     1     108.954   4.905  13.472  0.00  0.00    +0.000 NA
ATOM     22  H   UNL     1     108.430   4.493  14.244  0.00  0.00    +0.000 HD
BRANCH  21  23
ATOM     23  C   UNL     1     108.257   5.787  12.519  0.00  0.00    +0.000 C 
ATOM     24  C   UNL     1     106.865   5.214  12.231  0.00  0.00    +0.000 C 
ATOM     25  C   UNL     1     105.907   6.409  12.293  0.00  0.00    +0.000 C 
ATOM     26  C   UNL     1     106.785   7.648  12.426  0.00  0.00    +0.000 C 
ATOM     27  C   UNL     1     107.990   7.130  13.195  0.00  0.00    +0.000 C 
ENDBRANCH  21  23
ENDBRANCH  18  21
ENDBRANCH   5  18
TORSDOF 4
