REMARK  Name = 6i67_ligand
REMARK  1 active torsions:
REMARK  status: ('A' for Active; 'I' for Inactive)
REMARK    1  A    between atoms: C_8  and  O_11
REMARK                            x       y       z     vdW  Elec       q    Type
REMARK                         _______ _______ _______ _____ _____    ______ ____
ROOT
ATOM      1  C   UNL     1     -17.306  -6.676 -25.010  0.00  0.00    +0.000 A 
ATOM      2  C   UNL     1     -17.828  -5.421 -25.312  0.00  0.00    +0.000 A 
ATOM      3  C   UNL     1     -15.420  -6.272 -26.477  0.00  0.00    +0.000 A 
ATOM      4  C   UNL     1     -16.635  -2.228 -27.135  0.00  0.00    +0.000 C 
ATOM      5  C   UNL     1     -16.003  -2.957 -28.339  0.00  0.00    +0.000 C 
ATOM      6  C   UNL     1     -17.606  -3.355 -26.577  0.00  0.00    +0.000 C 
ATOM      7  C   UNL     1     -15.297  -4.129 -27.588  0.00  0.00    +0.000 C 
ATOM      8  C   UNL     1     -16.106  -7.101 -25.586  0.00  0.00    +0.000 A 
ATOM      9  C   UNL     1     -17.113  -4.587 -26.168  0.00  0.00    +0.000 A 
ATOM     10  C   UNL     1     -15.972  -5.036 -26.802  0.00  0.00    +0.000 A 
ENDROOT
BRANCH   8  11
ATOM     11  O   UNL     1     -15.605  -8.343 -25.289  0.00  0.00    +0.000 OA
ATOM     12  H   UNL     1     -14.781  -8.477 -25.764  0.00  0.00    +0.000 HD
ENDBRANCH   8  11
TORSDOF 1
