REMARK  Name = 6o9c_ligand
REMARK  38 active torsions:
REMARK  status: ('A' for Active; 'I' for Inactive)
REMARK    1  A    between atoms: N_1  and  CA_2
REMARK    2  A    between atoms: CA_2  and  C_3
REMARK    3  A    between atoms: CA_2  and  CB_5
REMARK    4  A    between atoms: CB_5  and  OG1_6
REMARK    5  A    between atoms: CB_5  and  CG2_7
REMARK    6  A    between atoms: N_8  and  CA_9
REMARK    7  A    between atoms: CA_9  and  C_10
REMARK    8  A    between atoms: CA_9  and  CB_12
REMARK    9  A    between atoms: CB_12  and  OG1_13
REMARK   10  A    between atoms: CB_12  and  CG2_14
REMARK   11  A    between atoms: N_15  and  CA_16
REMARK   12  A    between atoms: CA_16  and  C_17
REMARK   13  A    between atoms: CA_16  and  CB_19
REMARK   14  A    between atoms: CA_21  and  C_22
REMARK   15  A    between atoms: N_27  and  CA_28
REMARK   16  A    between atoms: CA_28  and  C_29
REMARK   17  A    between atoms: CA_28  and  CB_31
REMARK   18  A    between atoms: CB_31  and  CG_32
REMARK   19  A    between atoms: N_38  and  CA_39
REMARK   20  A    between atoms: CA_39  and  C_40
REMARK   21  A    between atoms: CA_39  and  CB_42
REMARK   22  A    between atoms: CB_42  and  CG_43
REMARK   23  A    between atoms: CG_43  and  CD1_44
REMARK   24  A    between atoms: CG_43  and  CD2_45
REMARK   25  A    between atoms: N_46  and  CA_47
REMARK   26  A    between atoms: CA_47  and  C_48
REMARK   27  A    between atoms: CA_47  and  CB_50
REMARK   28  A    between atoms: CB_50  and  OG_51
REMARK   29  A    between atoms: N_52  and  CA_53
REMARK   30  A    between atoms: CA_53  and  C_54
REMARK   31  A    between atoms: N_56  and  CA_57
REMARK   32  A    between atoms: CA_57  and  C_58
REMARK   33  A    between atoms: CA_57  and  CB_60
REMARK   34  A    between atoms: C_58  and  O_59
REMARK   35  A    between atoms: CB_60  and  CG_61
REMARK   36  A    between atoms: CG_61  and  CD_62
REMARK   37  A    between atoms: CD_62  and  CE_63
REMARK   38  A    between atoms: CE_63  and  NZ_64
REMARK                            x       y       z     vdW  Elec       q    Type
REMARK                         _______ _______ _______ _____ _____    ______ ____
ROOT
ATOM      1  CA  PHE A   5      71.793   0.598  27.018  0.00  0.00    +0.000 C 
ENDROOT
BRANCH   1   2
ATOM      2  C   PHE A   5      70.983  -0.710  26.946  0.00  0.00    +0.000 C 
ATOM      3  O   PHE A   5      71.094  -1.616  27.836  0.00  0.00    +0.000 OA
ATOM      4  N   LEU A   6      70.209  -0.794  25.862  0.00  0.00    +0.000 N 
ATOM      5  H   LEU A   6      69.950   0.061  25.370  0.00  0.00    +0.000 HD
BRANCH   4   6
ATOM      6  CA  LEU A   6      69.717  -2.094  25.355  0.00  0.00    +0.000 C 
BRANCH   6   7
ATOM      7  C   LEU A   6      70.696  -2.531  24.258  0.00  0.00    +0.000 C 
ATOM      8  O   LEU A   6      71.310  -1.671  23.596  0.00  0.00    +0.000 OA
ATOM      9  N   SER A   7      70.845  -3.834  24.067  0.00  0.00    +0.000 N 
ATOM     10  H   SER A   7      70.423  -4.483  24.732  0.00  0.00    +0.000 HD
BRANCH   9  11
ATOM     11  CA  SER A   7      71.607  -4.378  22.916  0.00  0.00    +0.000 C 
BRANCH  11  12
ATOM     12  C   SER A   7      70.929  -3.983  21.605  0.00  0.00    +0.000 C 
ATOM     13  O   SER A   7      69.740  -3.538  21.597  0.00  0.00    +0.000 OA
ATOM     14  N   GLY A   8      71.677  -4.183  20.531  0.00  0.00    +0.000 N 
ATOM     15  H   GLY A   8      72.570  -4.662  20.648  0.00  0.00    +0.000 HD
BRANCH  14  16
ATOM     16  CA  GLY A   8      71.293  -3.754  19.182  0.00  0.00    +0.000 C 
BRANCH  16  17
ATOM     17  C   GLY A   8      69.956  -4.323  18.782  0.00  0.00    +0.000 C 
ATOM     18  O   GLY A   8      69.520  -5.339  19.344  0.00  0.00    +0.000 OA
ATOM     19  N   LYS A   9      69.293  -3.624  17.876  0.00  0.00    +0.000 N 
ATOM     20  H   LYS A   9      69.722  -2.781  17.494  0.00  0.00    +0.000 HD
BRANCH  19  21
ATOM     21  CA  LYS A   9      67.946  -4.024  17.395  0.00  0.00    +0.000 C 
BRANCH  21  22
ATOM     22  C   LYS A   9      68.120  -5.078  16.295  0.00  0.00    +0.000 C 
ATOM     23  OXT LYS A   9      69.261  -5.161  15.780  0.00  0.00    +0.000 OA
BRANCH  22  24
ATOM     24  O   LYS A   9      67.151  -5.792  15.940  0.00  0.00    +0.000 OA
ATOM     25  H   LYS A   9      66.379  -5.564  16.462  0.00  0.00    +0.000 HD
ENDBRANCH  22  24
ENDBRANCH  21  22
BRANCH  21  26
ATOM     26  CB  LYS A   9      67.197  -2.798  16.876  0.00  0.00    +0.000 C 
BRANCH  26  27
ATOM     27  CG  LYS A   9      66.791  -1.826  17.961  0.00  0.00    +0.000 C 
BRANCH  27  28
ATOM     28  CD  LYS A   9      66.163  -0.584  17.416  0.00  0.00    +0.000 C 
BRANCH  28  29
ATOM     29  CE  LYS A   9      65.374   0.127  18.491  0.00  0.00    +0.000 C 
BRANCH  29  30
ATOM     30  NZ  LYS A   9      65.652   1.578  18.502  0.00  0.00    +0.000 N 
ATOM     31  HZ1 LYS A   9      65.103   2.022  19.238  0.00  0.00    +0.000 HD
ATOM     32  HZ2 LYS A   9      66.645   1.731  18.677  0.00  0.00    +0.000 HD
ATOM     33  HZ3 LYS A   9      65.399   1.978  17.599  0.00  0.00    +0.000 HD
ENDBRANCH  29  30
ENDBRANCH  28  29
ENDBRANCH  27  28
ENDBRANCH  26  27
ENDBRANCH  21  26
ENDBRANCH  19  21
ENDBRANCH  16  17
ENDBRANCH  14  16
ENDBRANCH  11  12
BRANCH  11  34
ATOM     34  CB  SER A   7      71.768  -5.869  22.999  0.00  0.00    +0.000 C 
BRANCH  34  35
ATOM     35  OG  SER A   7      70.500  -6.497  23.028  0.00  0.00    +0.000 OA
ATOM     36  H   SER A   7      70.617  -7.448  23.081  0.00  0.00    +0.000 HD
ENDBRANCH  34  35
ENDBRANCH  11  34
ENDBRANCH   9  11
ENDBRANCH   6   7
BRANCH   6  37
ATOM     37  CB  LEU A   6      68.288  -2.014  24.809  0.00  0.00    +0.000 C 
BRANCH  37  38
ATOM     38  CG  LEU A   6      67.180  -1.529  25.748  0.00  0.00    +0.000 C 
ATOM     39  CD1 LEU A   6      65.890  -2.276  25.451  0.00  0.00    +0.000 C 
ATOM     40  CD2 LEU A   6      67.533  -1.665  27.221  0.00  0.00    +0.000 C 
ENDBRANCH  37  38
ENDBRANCH   6  37
ENDBRANCH   4   6
ENDBRANCH   1   2
BRANCH   1  43
ATOM     41  C   PRO A   4      70.990   0.997  29.368  0.00  0.00    +0.000 C 
ATOM     42  O   PRO A   4      69.859   0.651  29.224  0.00  0.00    +0.000 OA
ATOM     43  N   PHE A   5      71.898   1.138  28.403  0.00  0.00    +0.000 N 
ATOM     44  H   PHE A   5      72.742   1.663  28.633  0.00  0.00    +0.000 HD
BRANCH  41  48
ATOM     45  C   ALA A   3      70.041   3.426  30.952  0.00  0.00    +0.000 C 
ATOM     46  O   ALA A   3      70.706   4.002  30.088  0.00  0.00    +0.000 OA
ATOM     47  N   PRO A   4      70.381   2.218  31.423  0.00  0.00    +0.000 N 
ATOM     48  CA  PRO A   4      71.423   1.437  30.772  0.00  0.00    +0.000 C 
ATOM     49  CB  PRO A   4      71.589   0.216  31.683  0.00  0.00    +0.000 C 
ATOM     50  CG  PRO A   4      70.303   0.130  32.490  0.00  0.00    +0.000 C 
ATOM     51  CD  PRO A   4      69.753   1.535  32.565  0.00  0.00    +0.000 C 
BRANCH  45  52
ATOM     52  CA  ALA A   3      68.818   4.070  31.568  0.00  0.00    +0.000 C 
ATOM     53  CB  ALA A   3      67.549   3.587  30.914  0.00  0.00    +0.000 C 
BRANCH  52  56
ATOM     54  C   THR A   2      69.607   6.287  32.255  0.00  0.00    +0.000 C 
ATOM     55  O   THR A   2      70.118   5.896  33.346  0.00  0.00    +0.000 OA
ATOM     56  N   ALA A   3      68.986   5.515  31.388  0.00  0.00    +0.000 N 
ATOM     57  H   ALA A   3      68.602   5.945  30.547  0.00  0.00    +0.000 HD
BRANCH  54  58
ATOM     58  CA  THR A   2      69.570   7.764  31.873  0.00  0.00    +0.000 C 
BRANCH  58  61
ATOM     59  C   THR A   1      69.012   8.620  34.104  0.00  0.00    +0.000 C 
ATOM     60  O   THR A   1      67.920   8.013  34.200  0.00  0.00    +0.000 OA
ATOM     61  N   THR A   2      69.810   8.592  33.061  0.00  0.00    +0.000 N 
ATOM     62  H   THR A   2      70.644   9.179  33.078  0.00  0.00    +0.000 HD
BRANCH  59  63
ATOM     63  CA  THR A   1      69.527   9.480  35.252  0.00  0.00    +0.000 C 
BRANCH  63  64
ATOM     64  N   THR A   1      68.378  10.035  36.047  0.00  0.00    +0.000 N 
ATOM     65  H1  THR A   1      67.780  10.591  35.435  0.00  0.00    +0.000 HD
ATOM     66  H2  THR A   1      67.839   9.266  36.445  0.00  0.00    +0.000 HD
ATOM     67  H3  THR A   1      68.739  10.623  36.798  0.00  0.00    +0.000 HD
ENDBRANCH  63  64
BRANCH  63  68
ATOM     68  CB  THR A   1      70.493   8.623  36.085  0.00  0.00    +0.000 C 
ATOM     69  CG2 THR A   1      71.416   9.442  36.957  0.00  0.00    +0.000 C 
BRANCH  68  70
ATOM     70  OG1 THR A   1      69.706   7.799  36.937  0.00  0.00    +0.000 OA
ATOM     71  HG1 THR A   1      69.110   7.267  36.405  0.00  0.00    +0.000 HD
ENDBRANCH  68  70
ENDBRANCH  63  68
ENDBRANCH  59  63
ENDBRANCH  58  61
BRANCH  58  72
ATOM     72  CB  THR A   2      70.558   8.102  30.761  0.00  0.00    +0.000 C 
ATOM     73  CG2 THR A   2      70.187   9.407  30.103  0.00  0.00    +0.000 C 
BRANCH  72  74
ATOM     74  OG1 THR A   2      71.874   8.206  31.303  0.00  0.00    +0.000 OA
ATOM     75  HG1 THR A   2      72.492   8.419  30.600  0.00  0.00    +0.000 HD
ENDBRANCH  72  74
ENDBRANCH  58  72
ENDBRANCH  54  58
ENDBRANCH  52  56
ENDBRANCH  45  52
ENDBRANCH  41  48
ENDBRANCH   1  43
BRANCH   1  76
ATOM     76  CB  PHE A   5      73.189   0.342  26.438  0.00  0.00    +0.000 C 
BRANCH  76  77
ATOM     77  CG  PHE A   5      73.946  -0.815  27.064  0.00  0.00    +0.000 A 
ATOM     78  CD1 PHE A   5      74.767  -0.620  28.169  0.00  0.00    +0.000 A 
ATOM     79  CD2 PHE A   5      73.860  -2.098  26.533  0.00  0.00    +0.000 A 
ATOM     80  CE1 PHE A   5      75.465  -1.678  28.734  0.00  0.00    +0.000 A 
ATOM     81  CE2 PHE A   5      74.560  -3.153  27.102  0.00  0.00    +0.000 A 
ATOM     82  CZ  PHE A   5      75.358  -2.944  28.203  0.00  0.00    +0.000 A 
ENDBRANCH  76  77
ENDBRANCH   1  76
TORSDOF 33
