REMARK  Name = 6k04_ligand
REMARK  5 active torsions:
REMARK  status: ('A' for Active; 'I' for Inactive)
REMARK    1  A    between atoms: C_2  and  C_13
REMARK    2  A    between atoms: C_7  and  N_28
REMARK    3  A    between atoms: C_11  and  C_12
REMARK    4  A    between atoms: C_16  and  N_26
REMARK    5  A    between atoms: C_17  and  N_28
REMARK                            x       y       z     vdW  Elec       q    Type
REMARK                         _______ _______ _______ _____ _____    ______ ____
ROOT
ATOM      1  C   UNL     1       6.630  71.870  -2.199  0.00  0.00    +0.000 A 
ATOM      2  C   UNL     1       7.963  72.503  -2.616  0.00  0.00    +0.000 A 
ATOM      3  C   UNL     1       8.849  71.938  -3.721  0.00  0.00    +0.000 A 
ATOM      4  C   UNL     1       8.345  70.691  -4.440  0.00  0.00    +0.000 A 
ATOM      5  C   UNL     1       7.070  70.094  -4.035  0.00  0.00    +0.000 A 
ATOM      6  C   UNL     1       6.167  70.629  -2.935  0.00  0.00    +0.000 A 
ATOM      7  C   UNL     1       9.217  70.084  -5.551  0.00  0.00    +0.000 C 
ATOM      8  C   UNL     1       8.602  70.165  -6.934  0.00  0.00    +0.000 C 
ATOM      9  C   UNL     1       7.103  70.017  -6.927  0.00  0.00    +0.000 C 
ATOM     10  C   UNL     1       6.632  68.831  -6.070  0.00  0.00    +0.000 A 
ATOM     11  C   UNL     1       6.138  67.732  -4.257  0.00  0.00    +0.000 A 
ATOM     12  C   UNL     1       5.952  67.391  -2.788  0.00  0.00    +0.000 C 
ATOM     13  N   UNL     1       6.620  68.900  -4.747  0.00  0.00    +0.000 N 
ATOM     14  N   UNL     1       6.168  67.634  -6.441  0.00  0.00    +0.000 NA
ATOM     15  N   UNL     1       5.864  66.965  -5.291  0.00  0.00    +0.000 NA
ENDROOT
BRANCH   2  16
ATOM     16  C   UNL     1       8.416  73.727  -1.874  0.00  0.00    +0.000 A 
ATOM     17  C   UNL     1       7.901  74.142  -0.686  0.00  0.00    +0.000 A 
ATOM     18  C   UNL     1       9.414  74.571  -2.252  0.00  0.00    +0.000 A 
ATOM     19  C   UNL     1       8.338  76.030   0.858  0.00  0.00    +0.000 C 
ATOM     20  N   UNL     1       8.559  75.241  -0.341  0.00  0.00    +0.000 N 
ATOM     21  N   UNL     1       9.504  75.510  -1.320  0.00  0.00    +0.000 NA
ENDBRANCH   2  16
BRANCH   7  22
ATOM     22  N   UNL     1      10.463  70.795  -5.633  0.00  0.00    +0.000 N 
ATOM     23  H   UNL     1      10.589  71.525  -6.334  0.00  0.00    +0.000 HD
BRANCH  22  24
ATOM     24  C   UNL     1      11.519  70.481  -4.738  0.00  0.00    +0.000 A 
ATOM     25  C   UNL     1      12.892  70.996  -5.110  0.00  0.00    +0.000 A 
ATOM     26  C   UNL     1      14.044  70.685  -4.193  0.00  0.00    +0.000 A 
ATOM     27  C   UNL     1      13.760  69.879  -2.945  0.00  0.00    +0.000 A 
ATOM     28  C   UNL     1      12.389  69.381  -2.566  0.00  0.00    +0.000 A 
ATOM     29  C   UNL     1      11.240  69.685  -3.485  0.00  0.00    +0.000 A 
ATOM     30 CL   UNL     1      15.090  69.513  -1.875  0.00  0.00    +0.000 Cl
ENDBRANCH  22  24
ENDBRANCH   7  22
TORSDOF 3
