REMARK  Name = 6d07_ligand
REMARK  48 active torsions:
REMARK  status: ('A' for Active; 'I' for Inactive)
REMARK    1  A    between atoms: N_1  and  CA_2
REMARK    2  A    between atoms: CA_2  and  C_3
REMARK    3  A    between atoms: CA_2  and  CB_5
REMARK    4  A    between atoms: CB_5  and  CG_6
REMARK    5  A    between atoms: CG_6  and  CD_7
REMARK    6  A    between atoms: CD_7  and  CE_8
REMARK    7  A    between atoms: CE_8  and  NZ_9
REMARK    8  A    between atoms: N_10  and  CA_11
REMARK    9  A    between atoms: CA_11  and  C_12
REMARK   10  A    between atoms: CA_11  and  CB_14
REMARK   11  A    between atoms: CB_14  and  CG_15
REMARK   12  A    between atoms: CG_15  and  CD_16
REMARK   13  A    between atoms: N_19  and  CA_20
REMARK   14  A    between atoms: CA_20  and  C_21
REMARK   15  A    between atoms: CA_20  and  CB_23
REMARK   16  A    between atoms: CB_23  and  OG1_24
REMARK   17  A    between atoms: CB_23  and  CG2_25
REMARK   18  A    between atoms: N_26  and  CA_27
REMARK   19  A    between atoms: CA_27  and  C_28
REMARK   20  A    between atoms: CA_27  and  CB_30
REMARK   21  A    between atoms: N_31  and  CA_32
REMARK   22  A    between atoms: CA_32  and  C_33
REMARK   23  A    between atoms: CA_32  and  CB_35
REMARK   24  A    between atoms: CB_35  and  CG_36
REMARK   25  A    between atoms: CG_36  and  CD_37
REMARK   26  A    between atoms: CD_37  and  NE_38
REMARK   27  A    between atoms: N_42  and  C_43
REMARK   28  A    between atoms: C_43  and  C_44
REMARK   29  A    between atoms: C_43  and  C_49
REMARK   30  A    between atoms: C_44  and  C_45
REMARK   31  A    between atoms: C_45  and  C_46
REMARK   32  A    between atoms: C_46  and  C_47
REMARK   33  A    between atoms: C_47  and  N_48
REMARK   34  A    between atoms: N_48  and  C_51
REMARK   35  A    between atoms: N_48  and  C_52
REMARK   36  A    between atoms: N_48  and  C_53
REMARK   37  A    between atoms: N_54  and  CA_55
REMARK   38  A    between atoms: CA_55  and  C_56
REMARK   39  A    between atoms: CA_55  and  CB_58
REMARK   40  A    between atoms: CB_58  and  OG_59
REMARK   41  A    between atoms: N_60  and  CA_61
REMARK   42  A    between atoms: CA_61  and  C_62
REMARK   43  A    between atoms: CA_61  and  CB_64
REMARK   44  A    between atoms: CB_64  and  OG1_65
REMARK   45  A    between atoms: CB_64  and  CG2_66
REMARK   46  A    between atoms: N_67  and  CA_68
REMARK   47  A    between atoms: CA_68  and  C_69
REMARK   48  A    between atoms: C_69  and  OXT_71
REMARK                            x       y       z     vdW  Elec       q    Type
REMARK                         _______ _______ _______ _____ _____    ______ ____
ROOT
ATOM      1  CA  ARG A   5      12.696  11.721  10.630  0.00  0.00    +0.000 C 
ENDROOT
BRANCH   1   2
ATOM      2  C   ARG A   5      11.423  11.339  11.373  0.00  0.00    +0.000 C 
ATOM      3  O   ARG A   5      11.430  10.440  12.215  0.00  0.00    +0.000 OA
ATOM      4  N   UNK A   6      10.340  12.046  11.077  0.00  0.00    +0.000 N 
ATOM      5  H   UNK A   6      10.412  12.806  10.401  0.00  0.00    +0.000 HD
BRANCH   4   6
ATOM      6  C   UNK A   6       9.064  11.768  11.686  0.00  0.00    +0.000 C 
BRANCH   6   7
ATOM      7  C   UNK A   6       8.260  10.773  10.862  0.00  0.00    +0.000 C 
ATOM      8  O   UNK A   6       8.006  10.939   9.667  0.00  0.00    +0.000 OA
ATOM      9  N   SER A   7       7.858   9.694  11.529  0.00  0.00    +0.000 N 
ATOM     10  H   SER A   7       8.076   9.615  12.522  0.00  0.00    +0.000 HD
BRANCH   9  11
ATOM     11  CA  SER A   7       7.114   8.621  10.877  0.00  0.00    +0.000 C 
BRANCH  11  12
ATOM     12  C   SER A   7       5.789   9.139  10.330  0.00  0.00    +0.000 C 
ATOM     13  O   SER A   7       5.007   9.756  11.052  0.00  0.00    +0.000 OA
ATOM     14  N   THR A   8       5.551   8.884   9.046  0.00  0.00    +0.000 N 
ATOM     15  H   THR A   8       6.205   8.293   8.534  0.00  0.00    +0.000 HD
BRANCH  14  16
ATOM     16  CA  THR A   8       4.392   9.417   8.345  0.00  0.00    +0.000 C 
BRANCH  16  17
ATOM     17  C   THR A   8       3.242   8.418   8.366  0.00  0.00    +0.000 C 
ATOM     18  O   THR A   8       3.433   7.225   8.115  0.00  0.00    +0.000 OA
ATOM     19  N   GLY A   9       2.046   8.915   8.665  0.00  0.00    +0.000 N 
ATOM     20  H   GLY A   9       1.959   9.912   8.862  0.00  0.00    +0.000 HD
BRANCH  19  21
ATOM     21  CA  GLY A   9       0.861   8.079   8.719  0.00  0.00    +0.000 C 
BRANCH  21  22
ATOM     22  C   GLY A   9       0.636   7.452  10.081  0.00  0.00    +0.000 C 
ATOM     23  O   GLY A   9       1.430   7.646  11.001  0.00  0.00    +0.000 OA
BRANCH  22  24
ATOM     24  OXT GLY A   9      -0.345   6.738  10.290  0.00  0.00    +0.000 OA
ATOM     25  HXT GLY A   9      -0.871   6.677   9.489  0.00  0.00    +0.000 HD
ENDBRANCH  22  24
ENDBRANCH  21  22
ENDBRANCH  19  21
ENDBRANCH  16  17
BRANCH  16  26
ATOM     26  CB  THR A   8       4.756   9.763   6.899  0.00  0.00    +0.000 C 
ATOM     27  CG2 THR A   8       3.602  10.494   6.213  0.00  0.00    +0.000 C 
BRANCH  26  28
ATOM     28  OG1 THR A   8       5.924  10.597   6.884  0.00  0.00    +0.000 OA
ATOM     29  HG1 THR A   8       6.150  10.813   5.976  0.00  0.00    +0.000 HD
ENDBRANCH  26  28
ENDBRANCH  16  26
ENDBRANCH  14  16
ENDBRANCH  11  12
BRANCH  11  30
ATOM     30  CB  SER A   7       6.876   7.463  11.849  0.00  0.00    +0.000 C 
BRANCH  30  31
ATOM     31  OG  SER A   7       8.102   6.865  12.235  0.00  0.00    +0.000 OA
ATOM     32  H   SER A   7       7.927   6.143  12.843  0.00  0.00    +0.000 HD
ENDBRANCH  30  31
ENDBRANCH  11  30
ENDBRANCH   9  11
ENDBRANCH   6   7
BRANCH   6  33
ATOM     33  C   UNK A   6       8.222  13.040  11.871  0.00  0.00    +0.000 C 
BRANCH  33  34
ATOM     34  C   UNK A   6       7.073  12.811  12.826  0.00  0.00    +0.000 C 
BRANCH  34  35
ATOM     35  C   UNK A   6       6.045  13.922  12.691  0.00  0.00    +0.000 C 
BRANCH  35  36
ATOM     36  C   UNK A   6       6.695  15.229  13.125  0.00  0.00    +0.000 C 
BRANCH  36  37
ATOM     37  N   UNK A   6       5.805  16.446  13.282  0.00  0.00    +0.000 N 
ATOM     38  C   UNK A   6       4.752  16.231  14.318  0.00  0.00    +0.000 C 
ATOM     39  C   UNK A   6       5.161  16.833  11.992  0.00  0.00    +0.000 C 
ATOM     40  C   UNK A   6       6.687  17.572  13.725  0.00  0.00    +0.000 C 
ENDBRANCH  36  37
ENDBRANCH  35  36
ENDBRANCH  34  35
ENDBRANCH  33  34
ENDBRANCH   6  33
ENDBRANCH   4   6
ENDBRANCH   1   2
BRANCH   1  43
ATOM     41  C   ALA A   4      13.994  13.119  12.119  0.00  0.00    +0.000 C 
ATOM     42  O   ALA A   4      13.409  14.143  11.755  0.00  0.00    +0.000 OA
ATOM     43  N   ARG A   5      13.770  11.924  11.590  0.00  0.00    +0.000 N 
ATOM     44  H   ARG A   5      14.359  11.136  11.860  0.00  0.00    +0.000 HD
BRANCH  41  45
ATOM     45  CA  ALA A   4      15.046  13.160  13.215  0.00  0.00    +0.000 C 
ATOM     46  CB  ALA A   4      14.450  12.712  14.555  0.00  0.00    +0.000 C 
BRANCH  45  49
ATOM     47  C   THR A   3      16.764  14.780  13.833  0.00  0.00    +0.000 C 
ATOM     48  O   THR A   3      17.431  13.943  14.446  0.00  0.00    +0.000 OA
ATOM     49  N   ALA A   4      15.584  14.510  13.282  0.00  0.00    +0.000 N 
ATOM     50  H   ALA A   4      15.036  15.277  12.892  0.00  0.00    +0.000 HD
BRANCH  47  51
ATOM     51  CA  THR A   3      17.248  16.211  13.645  0.00  0.00    +0.000 C 
BRANCH  51  54
ATOM     52  C   GLN A   2      18.559  17.416  15.315  0.00  0.00    +0.000 C 
ATOM     53  O   GLN A   2      17.636  18.201  15.559  0.00  0.00    +0.000 OA
ATOM     54  N   THR A   3      18.455  16.437  14.424  0.00  0.00    +0.000 N 
ATOM     55  H   THR A   3      19.253  15.819  14.280  0.00  0.00    +0.000 HD
BRANCH  52  56
ATOM     56  CA  GLN A   2      19.896  17.543  16.036  0.00  0.00    +0.000 C 
BRANCH  56  59
ATOM     57  C   LYS A   1      21.392  18.686  14.475  0.00  0.00    +0.000 C 
ATOM     58  O   LYS A   1      21.636  17.655  13.855  0.00  0.00    +0.000 OA
ATOM     59  N   GLN A   2      20.583  18.725  15.530  0.00  0.00    +0.000 N 
ATOM     60  H   GLN A   2      20.438  19.617  16.003  0.00  0.00    +0.000 HD
BRANCH  57  61
ATOM     61  CA  LYS A   1      22.023  20.014  14.069  0.00  0.00    +0.000 C 
BRANCH  61  62
ATOM     62  N   LYS A   1      23.351  19.825  13.495  0.00  0.00    +0.000 N 
ATOM     63  H1  LYS A   1      23.943  19.334  14.165  0.00  0.00    +0.000 HD
ATOM     64  H2  LYS A   1      23.275  19.275  12.639  0.00  0.00    +0.000 HD
ATOM     65  H3  LYS A   1      23.760  20.735  13.281  0.00  0.00    +0.000 HD
ENDBRANCH  61  62
BRANCH  61  66
ATOM     66  CB  LYS A   1      21.114  20.750  13.082  0.00  0.00    +0.000 C 
BRANCH  66  67
ATOM     67  CG  LYS A   1      21.501  20.565  11.625  0.00  0.00    +0.000 C 
BRANCH  67  68
ATOM     68  CD  LYS A   1      20.590  21.369  10.708  0.00  0.00    +0.000 C 
BRANCH  68  69
ATOM     69  CE  LYS A   1      21.122  21.402   9.284  0.00  0.00    +0.000 C 
BRANCH  69  70
ATOM     70  NZ  LYS A   1      22.447  22.084   9.206  0.00  0.00    +0.000 N 
ATOM     71  HZ1 LYS A   1      22.770  22.086   8.239  0.00  0.00    +0.000 HD
ATOM     72  HZ2 LYS A   1      22.354  23.044   9.537  0.00  0.00    +0.000 HD
ATOM     73  HZ3 LYS A   1      23.119  21.586   9.789  0.00  0.00    +0.000 HD
ENDBRANCH  69  70
ENDBRANCH  68  69
ENDBRANCH  67  68
ENDBRANCH  66  67
ENDBRANCH  61  66
ENDBRANCH  57  61
ENDBRANCH  56  59
BRANCH  56  74
ATOM     74  CB  GLN A   2      19.702  17.645  17.547  0.00  0.00    +0.000 C 
BRANCH  74  75
ATOM     75  CG  GLN A   2      20.964  18.030  18.309  0.00  0.00    +0.000 C 
BRANCH  75  76
ATOM     76  CD  GLN A   2      22.064  16.991  18.188  0.00  0.00    +0.000 C 
ATOM     77  OE1 GLN A   2      21.995  15.926  18.799  0.00  0.00    +0.000 OA
ATOM     78  NE2 GLN A   2      23.087  17.297  17.396  0.00  0.00    +0.000 N 
ATOM     79 HE21 GLN A   2      23.855  16.637  17.277  0.00  0.00    +0.000 HD
ATOM     80 HE22 GLN A   2      23.104  18.192  16.908  0.00  0.00    +0.000 HD
ENDBRANCH  75  76
ENDBRANCH  74  75
ENDBRANCH  56  74
ENDBRANCH  52  56
ENDBRANCH  51  54
BRANCH  51  81
ATOM     81  CB  THR A   3      17.486  16.479  12.153  0.00  0.00    +0.000 C 
ATOM     82  CG2 THR A   3      18.057  17.878  11.935  0.00  0.00    +0.000 C 
BRANCH  81  83
ATOM     83  OG1 THR A   3      18.400  15.503  11.638  0.00  0.00    +0.000 OA
ATOM     84  HG1 THR A   3      18.551  15.668  10.704  0.00  0.00    +0.000 HD
ENDBRANCH  81  83
ENDBRANCH  51  81
ENDBRANCH  47  51
ENDBRANCH  45  49
ENDBRANCH  41  45
ENDBRANCH   1  43
BRANCH   1  85
ATOM     85  CB  ARG A   5      13.071  10.651   9.602  0.00  0.00    +0.000 C 
BRANCH  85  86
ATOM     86  CG  ARG A   5      14.116  11.116   8.599  0.00  0.00    +0.000 C 
BRANCH  86  87
ATOM     87  CD  ARG A   5      14.488  10.016   7.622  0.00  0.00    +0.000 C 
BRANCH  87  88
ATOM     88  NE  ARG A   5      15.065   8.857   8.295  0.00  0.00    +0.000 N 
ATOM     89  CZ  ARG A   5      16.350   8.745   8.616  0.00  0.00    +0.000 C 
ATOM     90  NH1 ARG A   5      17.192   9.728   8.330  0.00  0.00    +0.000 NA
ATOM     91  NH2 ARG A   5      16.792   7.651   9.223  0.00  0.00    +0.000 N 
ATOM     92  HE  ARG A   5      14.443   8.084   8.534  0.00  0.00    +0.000 HD
ATOM     93  HH1 ARG A   5      16.854  10.570   7.864  0.00  0.00    +0.000 HD
ATOM     94 HH21 ARG A   5      17.778   7.567   9.469  0.00  0.00    +0.000 HD
ATOM     95 HH22 ARG A   5      16.145   6.894   9.444  0.00  0.00    +0.000 HD
ENDBRANCH  87  88
ENDBRANCH  86  87
ENDBRANCH  85  86
ENDBRANCH   1  85
TORSDOF 42
