REMARK  Name = 6om4_ligand
REMARK  39 active torsions:
REMARK  status: ('A' for Active; 'I' for Inactive)
REMARK    1  A    between atoms: N_1  and  C_4
REMARK    2  A    between atoms: C_4  and  C_5
REMARK    3  A    between atoms: C_4  and  C_9
REMARK    4  A    between atoms: C_5  and  C_6
REMARK    5  A    between atoms: C_6  and  S_7
REMARK    6  A    between atoms: S_7  and  C_8
REMARK    7  A    between atoms: N_11  and  C_12
REMARK    8  A    between atoms: C_12  and  C_13
REMARK    9  A    between atoms: C_12  and  C_15
REMARK   10  A    between atoms: C_15  and  C_16
REMARK   11  A    between atoms: C_16  and  C_17
REMARK   12  A    between atoms: C_17  and  N_18
REMARK   13  A    between atoms: N_22  and  C_23
REMARK   14  A    between atoms: C_23  and  C_24
REMARK   15  A    between atoms: C_23  and  C_26
REMARK   16  A    between atoms: C_26  and  O_27
REMARK   17  A    between atoms: C_26  and  C_28
REMARK   18  A    between atoms: N_29  and  C_30
REMARK   19  A    between atoms: C_30  and  C_31
REMARK   20  A    between atoms: N_33  and  C_34
REMARK   21  A    between atoms: C_34  and  C_35
REMARK   22  A    between atoms: C_34  and  C_37
REMARK   23  A    between atoms: C_37  and  C_38
REMARK   24  A    between atoms: N_41  and  C_42
REMARK   25  A    between atoms: C_42  and  C_43
REMARK   26  A    between atoms: C_42  and  C_45
REMARK   27  A    between atoms: N_46  and  C_47
REMARK   28  A    between atoms: C_47  and  C_48
REMARK   29  A    between atoms: C_47  and  C_50
REMARK   30  A    between atoms: C_50  and  C_51
REMARK   31  A    between atoms: C_51  and  O_53
REMARK   32  A    between atoms: P_55  and  O_56
REMARK   33  A    between atoms: P_55  and  N_57
REMARK   34  A    between atoms: P_55  and  O_58
REMARK   35  A    between atoms: O_58  and  C_59
REMARK   36  A    between atoms: C_59  and  C_60
REMARK   37  A    between atoms: C_61  and  O_62
REMARK   38  A    between atoms: C_63  and  O_64
REMARK   39  A    between atoms: C_65  and  N_67
REMARK                            x       y       z     vdW  Elec       q    Type
REMARK                         _______ _______ _______ _____ _____    ______ ____
ROOT
ATOM      1  C   UNL     1     -16.730   4.773 -14.957  0.00  0.00    +0.000 C 
ENDROOT
BRANCH   1   2
ATOM      2  C   UNL     1     -16.319   3.423 -14.353  0.00  0.00    +0.000 C 
ATOM      3  O   UNL     1     -15.544   3.252 -13.435  0.00  0.00    +0.000 OA
ATOM      4  N   UNL     1     -17.071   2.318 -14.939  0.00  0.00    +0.000 N 
ATOM      5  H   UNL     1     -17.833   2.521 -15.586  0.00  0.00    +0.000 HD
BRANCH   4   6
ATOM      6  C   UNL     1     -16.762   0.954 -14.624  0.00  0.00    +0.000 C 
ATOM      7  C   UNL     1     -18.007   0.207 -14.179  0.00  0.00    +0.000 C 
BRANCH   6   8
ATOM      8  C   UNL     1     -16.171   0.437 -15.929  0.00  0.00    +0.000 C 
ATOM      9  O   UNL     1     -16.297   1.025 -16.964  0.00  0.00    +0.000 OA
ATOM     10  N   UNL     1     -15.468  -0.808 -15.931  0.00  0.00    +0.000 N 
ATOM     11  H   UNL     1     -15.397  -1.361 -15.077  0.00  0.00    +0.000 HD
BRANCH  10  12
ATOM     12  C   UNL     1     -14.849  -1.282 -17.175  0.00  0.00    +0.000 C 
BRANCH  12  13
ATOM     13  C   UNL     1     -14.567  -2.758 -17.243  0.00  0.00    +0.000 C 
ATOM     14  O   UNL     1     -13.914  -3.247 -18.139  0.00  0.00    +0.000 OA
ATOM     15  N   UNL     1     -15.203  -3.505 -16.211  0.00  0.00    +0.000 N 
ATOM     16  H   UNL     1     -15.779  -3.006 -15.534  0.00  0.00    +0.000 HD
BRANCH  15  18
ATOM     17  O   UNL     1     -15.742  -5.500 -14.762  0.00  0.00    +0.000 OA
ATOM     18  P   UNL     1     -15.046  -5.189 -16.056  0.00  0.00    +0.000 P 
BRANCH  18  19
ATOM     19  O   UNL     1     -15.561  -5.865 -17.319  0.00  0.00    +0.000 OA
ATOM     20  H   UNL     1     -15.033  -5.583 -18.070  0.00  0.00    +0.000 HD
ENDBRANCH  18  19
BRANCH  18  21
ATOM     21  O   UNL     1     -13.491  -5.498 -16.022  0.00  0.00    +0.000 OA
BRANCH  21  22
ATOM     22  C   UNL     1     -12.751  -4.927 -14.900  0.00  0.00    +0.000 C 
BRANCH  22  23
ATOM     23  C   UNL     1     -11.496  -5.824 -14.747  0.00  0.00    +0.000 C 
ATOM     24  C   UNL     1     -11.932  -7.186 -14.108  0.00  0.00    +0.000 C 
ATOM     25  C   UNL     1     -11.457  -6.982 -12.607  0.00  0.00    +0.000 C 
ATOM     26  C   UNL     1     -10.410  -6.149 -12.679  0.00  0.00    +0.000 C 
ATOM     27  O   UNL     1     -10.693  -5.188 -13.953  0.00  0.00    +0.000 OA
BRANCH  26  28
ATOM     28  N   UNL     1     -10.208  -5.247 -11.581  0.00  0.00    +0.000 N 
ATOM     29  C   UNL     1      -9.038  -5.055 -10.911  0.00  0.00    +0.000 A 
ATOM     30  C   UNL     1      -9.261  -4.114  -9.970  0.00  0.00    +0.000 A 
ATOM     31  N   UNL     1     -10.551  -3.716 -10.063  0.00  0.00    +0.000 NA
ATOM     32  C   UNL     1     -11.100  -4.398 -11.049  0.00  0.00    +0.000 A 
ATOM     33  N   UNL     1      -7.826  -5.632 -11.051  0.00  0.00    +0.000 NA
ATOM     34  C   UNL     1      -6.855  -5.259 -10.273  0.00  0.00    +0.000 A 
ATOM     35  N   UNL     1      -7.050  -4.342  -9.319  0.00  0.00    +0.000 NA
ATOM     36  C   UNL     1      -8.207  -3.758  -9.155  0.00  0.00    +0.000 A 
ATOM     37  N   UNL     1      -8.392  -2.766  -8.111  0.00  0.00    +0.000 N 
ATOM     38  H   UNL     1      -9.304  -2.329  -7.978  0.00  0.00    +0.000 HD
ATOM     39  H   UNL     1      -7.610  -2.506  -7.511  0.00  0.00    +0.000 HD
ENDBRANCH  26  28
BRANCH  24  40
ATOM     40  O   UNL     1     -11.440  -8.273 -14.791  0.00  0.00    +0.000 OA
ATOM     41  H   UNL     1     -11.734  -9.079 -14.361  0.00  0.00    +0.000 HD
ENDBRANCH  24  40
BRANCH  25  42
ATOM     42  O   UNL     1     -10.993  -8.267 -12.037  0.00  0.00    +0.000 OA
ATOM     43  H   UNL     1     -10.709  -8.130 -11.130  0.00  0.00    +0.000 HD
ENDBRANCH  25  42
ENDBRANCH  22  23
ENDBRANCH  21  22
ENDBRANCH  18  21
ENDBRANCH  15  18
ENDBRANCH  12  13
BRANCH  12  44
ATOM     44  C   UNL     1     -13.491  -0.568 -17.355  0.00  0.00    +0.000 C 
BRANCH  44  45
ATOM     45  C   UNL     1     -12.839  -0.031 -16.083  0.00  0.00    +0.000 C 
ATOM     46  O   UNL     1     -12.337  -0.966 -15.375  0.00  0.00    +0.000 OA
BRANCH  45  47
ATOM     47  O   UNL     1     -12.846   1.245 -15.845  0.00  0.00    +0.000 OA
ATOM     48  H   UNL     1     -13.298   1.700 -16.559  0.00  0.00    +0.000 HD
ENDBRANCH  45  47
ENDBRANCH  44  45
ENDBRANCH  12  44
ENDBRANCH  10  12
ENDBRANCH   6   8
ENDBRANCH   4   6
ENDBRANCH   1   2
BRANCH   1  51
ATOM     49  C   UNL     1     -17.299   6.387 -13.300  0.00  0.00    +0.000 C 
ATOM     50  O   UNL     1     -18.349   5.795 -13.159  0.00  0.00    +0.000 OA
ATOM     51  N   UNL     1     -16.295   5.936 -14.199  0.00  0.00    +0.000 N 
ATOM     52  H   UNL     1     -15.380   6.375 -14.300  0.00  0.00    +0.000 HD
BRANCH  49  53
ATOM     53  C   UNL     1     -16.869   7.561 -12.449  0.00  0.00    +0.000 C 
BRANCH  53  56
ATOM     54  C   UNL     1     -18.780   9.105 -12.745  0.00  0.00    +0.000 C 
ATOM     55  O   UNL     1     -18.647   9.123 -13.964  0.00  0.00    +0.000 OA
ATOM     56  N   UNL     1     -17.923   8.321 -11.886  0.00  0.00    +0.000 N 
ATOM     57  H   UNL     1     -18.076   8.315 -10.878  0.00  0.00    +0.000 HD
BRANCH  54  58
ATOM     58  C   UNL     1     -19.856   9.872 -11.943  0.00  0.00    +0.000 C 
BRANCH  58  61
ATOM     59  C   UNL     1     -20.422  12.191 -12.801  0.00  0.00    +0.000 C 
ATOM     60  O   UNL     1     -20.109  12.701 -11.760  0.00  0.00    +0.000 OA
ATOM     61  N   UNL     1     -20.419  10.743 -12.930  0.00  0.00    +0.000 N 
ATOM     62  H   UNL     1     -20.837  10.328 -13.763  0.00  0.00    +0.000 HD
BRANCH  59  63
ATOM     63  C   UNL     1     -20.915  13.035 -13.953  0.00  0.00    +0.000 C 
BRANCH  63  66
ATOM     64  C   UNL     1     -20.607  11.620 -16.103  0.00  0.00    +0.000 C 
ATOM     65  O   UNL     1     -19.436  11.847 -16.111  0.00  0.00    +0.000 OA
ATOM     66  N   UNL     1     -21.445  12.158 -15.035  0.00  0.00    +0.000 N 
ATOM     67  H   UNL     1     -22.438  11.923 -15.029  0.00  0.00    +0.000 HD
BRANCH  64  68
ATOM     68  C   UNL     1     -21.296  10.669 -17.097  0.00  0.00    +0.000 C 
BRANCH  68  69
ATOM     69  N   UNL     1     -22.734  11.007 -17.237  0.00  0.00    +0.000 N 
ATOM     70  C   UNL     1     -23.718  10.011 -16.872  0.00  0.00    +0.000 C 
ATOM     71  O   UNL     1     -23.378   8.949 -16.478  0.00  0.00    +0.000 OA
ATOM     72  H   UNL     1     -23.023  11.922 -17.583  0.00  0.00    +0.000 HD
ENDBRANCH  68  69
BRANCH  68  73
ATOM     73  C   UNL     1     -20.518  10.723 -18.425  0.00  0.00    +0.000 C 
BRANCH  73  74
ATOM     74  C   UNL     1     -20.783  12.023 -19.222  0.00  0.00    +0.000 C 
BRANCH  74  75
ATOM     75  S   UNL     1     -19.740  12.134 -20.679  0.00  0.00    +0.000 S 
ATOM     76  C   UNL     1     -18.044  11.718 -20.108  0.00  0.00    +0.000 C 
ENDBRANCH  74  75
ENDBRANCH  73  74
ENDBRANCH  68  73
ENDBRANCH  64  68
ENDBRANCH  63  66
BRANCH  63  77
ATOM     77  C   UNL     1     -21.994  14.040 -13.567  0.00  0.00    +0.000 C 
BRANCH  77  78
ATOM     78  C   UNL     1     -22.063  14.973 -14.840  0.00  0.00    +0.000 C 
BRANCH  78  79
ATOM     79  C   UNL     1     -22.954  16.214 -14.883  0.00  0.00    +0.000 C 
BRANCH  79  80
ATOM     80  N   UNL     1     -21.952  17.232 -14.783  0.00  0.00    +0.000 N 
ATOM     81  C   UNL     1     -21.626  18.314 -15.642  0.00  0.00    +0.000 C 
ATOM     82  N   UNL     1     -20.508  19.070 -15.138  0.00  0.00    +0.000 N 
ATOM     83  N   UNL     1     -22.193  18.642 -16.756  0.00  0.00    +0.000 NA
ATOM     84  H   UNL     1     -21.370  17.169 -13.948  0.00  0.00    +0.000 HD
ATOM     85  H   UNL     1     -20.157  19.872 -15.662  0.00  0.00    +0.000 HD
ATOM     86  H   UNL     1     -20.067  18.803 -14.258  0.00  0.00    +0.000 HD
ATOM     87  H   UNL     1     -22.976  18.093 -17.111  0.00  0.00    +0.000 HD
ENDBRANCH  79  80
ENDBRANCH  78  79
ENDBRANCH  77  78
ENDBRANCH  63  77
ENDBRANCH  59  63
ENDBRANCH  58  61
BRANCH  58  88
ATOM     88  C   UNL     1     -20.817   8.922 -11.257  0.00  0.00    +0.000 C 
ATOM     89  C   UNL     1     -21.792   9.788 -10.427  0.00  0.00    +0.000 C 
BRANCH  88  90
ATOM     90  O   UNL     1     -21.437   8.187 -12.261  0.00  0.00    +0.000 OA
ATOM     91  H   UNL     1     -22.058   7.569 -11.867  0.00  0.00    +0.000 HD
ENDBRANCH  88  90
ENDBRANCH  58  88
ENDBRANCH  54  58
ENDBRANCH  53  56
ENDBRANCH  49  53
ENDBRANCH   1  51
BRANCH   1  92
ATOM     92  C   UNL     1     -16.239   4.904 -16.320  0.00  0.00    +0.000 C 
BRANCH  92  93
ATOM     93  C   UNL     1     -14.909   5.479 -16.596  0.00  0.00    +0.000 C 
ATOM     94  O   UNL     1     -14.811   6.610 -16.877  0.00  0.00    +0.000 OA
ATOM     95  N   UNL     1     -13.852   4.581 -16.525  0.00  0.00    +0.000 N 
ATOM     96  H   UNL     1     -12.902   4.894 -16.726  0.00  0.00    +0.000 HD
ATOM     97  H   UNL     1     -14.025   3.608 -16.271  0.00  0.00    +0.000 HD
ENDBRANCH  92  93
ENDBRANCH   1  92
TORSDOF 36
