REMARK  Name = 6op9_ligand
REMARK  13 active torsions:
REMARK  status: ('A' for Active; 'I' for Inactive)
REMARK    1  A    between atoms: C_1  and  O_22
REMARK    2  A    between atoms: O_2  and  C_24
REMARK    3  A    between atoms: O_2  and  C_36
REMARK    4  A    between atoms: C_3  and  C_13
REMARK    5  A    between atoms: C_3  and  N_34
REMARK    6  A    between atoms: C_7  and  C_27
REMARK    7  A    between atoms: C_13  and  C_14
REMARK    8  A    between atoms: C_14  and  O_23
REMARK    9  A    between atoms: C_15  and  N_35
REMARK   10  A    between atoms: N_21  and  C_28
REMARK   11  A    between atoms: N_21  and  C_31
REMARK   12  A    between atoms: O_22  and  C_29
REMARK   13  A    between atoms: O_23  and  C_30
REMARK                            x       y       z     vdW  Elec       q    Type
REMARK                         _______ _______ _______ _____ _____    ______ ____
ROOT
ATOM      1  C   UNL     1     -47.828 -11.770  11.284  0.00  0.00    +0.000 A 
ATOM      2  C   UNL     1     -51.203 -11.778  12.805  0.00  0.00    +0.000 A 
ATOM      3  C   UNL     1     -50.699 -14.530  12.530  0.00  0.00    +0.000 A 
ATOM      4  N   UNL     1     -49.002 -11.303  11.834  0.00  0.00    +0.000 NA
ATOM      5  C   UNL     1     -47.624 -13.167  11.153  0.00  0.00    +0.000 A 
ATOM      6  C   UNL     1     -51.904 -14.106  13.080  0.00  0.00    +0.000 A 
ATOM      7  C   UNL     1     -52.147 -12.726  13.214  0.00  0.00    +0.000 A 
ATOM      8  C   UNL     1     -48.580 -14.023  11.577  0.00  0.00    +0.000 A 
ATOM      9  C   UNL     1     -49.975 -12.204  12.249  0.00  0.00    +0.000 A 
ATOM     10  C   UNL     1     -49.749 -13.565  12.123  0.00  0.00    +0.000 A 
ENDROOT
BRANCH   6  12
ATOM     11  C   UNL     1     -52.558 -16.393  13.349  0.00  0.00    +0.000 C 
ATOM     12  O   UNL     1     -52.877 -15.032  13.520  0.00  0.00    +0.000 OA
ENDBRANCH   6  12
BRANCH   5  14
ATOM     13  N   UNL     1     -45.217 -13.073  10.035  0.00  0.00    +0.000 NA
ATOM     14  C   UNL     1     -46.244 -13.037  10.511  0.00  0.00    +0.000 C 
ENDBRANCH   5  14
BRANCH   8  15
ATOM     15  N   UNL     1     -48.177 -15.403  11.374  0.00  0.00    +0.000 N 
ATOM     16  H   UNL     1     -48.907 -16.109  11.278  0.00  0.00    +0.000 HD
BRANCH  15  24
ATOM     17 CL   UNL     1     -42.519 -17.327  10.812  0.00  0.00    +0.000 Cl
ATOM     18 CL   UNL     1     -47.629 -17.170   8.925  0.00  0.00    +0.000 Cl
ATOM     19  C   UNL     1     -45.227 -17.130  10.000  0.00  0.00    +0.000 A 
ATOM     20  C   UNL     1     -45.797 -15.508  12.204  0.00  0.00    +0.000 A 
ATOM     21  C   UNL     1     -44.518 -15.973  12.016  0.00  0.00    +0.000 A 
ATOM     22  C   UNL     1     -44.226 -16.787  10.935  0.00  0.00    +0.000 A 
ATOM     23  C   UNL     1     -46.516 -16.638  10.210  0.00  0.00    +0.000 A 
ATOM     24  C   UNL     1     -46.787 -15.836  11.300  0.00  0.00    +0.000 A 
BRANCH  21  25
ATOM     25  O   UNL     1     -43.509 -15.633  12.932  0.00  0.00    +0.000 OA
ATOM     26  C   UNL     1     -43.914 -14.790  13.979  0.00  0.00    +0.000 C 
ENDBRANCH  21  25
ENDBRANCH  15  24
ENDBRANCH   8  15
BRANCH   7  27
ATOM     27  O   UNL     1     -53.400 -12.450  13.780  0.00  0.00    +0.000 OA
BRANCH  27  28
ATOM     28  C   UNL     1     -53.917 -11.207  13.377  0.00  0.00    +0.000 C 
BRANCH  28  29
ATOM     29  C   UNL     1     -55.449 -11.287  13.365  0.00  0.00    +0.000 C 
BRANCH  29  30
ATOM     30  C   UNL     1     -55.911 -12.308  14.415  0.00  0.00    +0.000 C 
BRANCH  30  36
ATOM     31  C   UNL     1     -59.478 -10.504  18.351  0.00  0.00    +0.000 C 
ATOM     32  C   UNL     1     -56.932 -12.605  16.537  0.00  0.00    +0.000 C 
ATOM     33  C   UNL     1     -57.759 -10.910  15.026  0.00  0.00    +0.000 C 
ATOM     34  C   UNL     1     -57.736 -11.974  17.675  0.00  0.00    +0.000 C 
ATOM     35  C   UNL     1     -58.544 -10.249  16.167  0.00  0.00    +0.000 C 
ATOM     36  N   UNL     1     -56.584 -11.626  15.517  0.00  0.00    +0.000 N 
ATOM     37  N   UNL     1     -58.882 -11.200  17.218  0.00  0.00    +0.000 N 
ATOM     38  H   UNL     1     -55.962 -10.933  15.934  0.00  0.00    +0.000 HD
ATOM     39  H   UNL     1     -59.550 -11.856  16.813  0.00  0.00    +0.000 HD
ENDBRANCH  30  36
ENDBRANCH  29  30
ENDBRANCH  28  29
ENDBRANCH  27  28
ENDBRANCH   7  27
TORSDOF 10
