REMARK  Name = 6d3y_ligand
REMARK  27 active torsions:
REMARK  status: ('A' for Active; 'I' for Inactive)
REMARK    1  A    between atoms: CA_6  and  CB_9
REMARK    2  A    between atoms: CB_9  and  CG_10
REMARK    3  A    between atoms: CG_10  and  CD_11
REMARK    4  A    between atoms: CD_11  and  NE_12
REMARK    5  A    between atoms: CA_23  and  CB_26
REMARK    6  A    between atoms: CB_26  and  OG1_27
REMARK    7  A    between atoms: CB_26  and  CG2_28
REMARK    8  A    between atoms: CA_30  and  CB_33
REMARK    9  A    between atoms: CB_33  and  CG_34
REMARK   10  A    between atoms: CG_34  and  CD_35
REMARK   11  A    between atoms: CD_35  and  CE_36
REMARK   12  A    between atoms: CE_36  and  NZ_37
REMARK   13  A    between atoms: C_39  and  C_42
REMARK   14  A    between atoms: C_42  and  O_43
REMARK   15  A    between atoms: C_45  and  C_48
REMARK   16  A    between atoms: C_48  and  C_49
REMARK   17  A    between atoms: C_49  and  C_50
REMARK   18  A    between atoms: C_50  and  N_51
REMARK   19  A    between atoms: C_70  and  C_73
REMARK   20  A    between atoms: C_73  and  C_74
REMARK   21  A    between atoms: C_73  and  C_75
REMARK   22  A    between atoms: C_74  and  C_76
REMARK   23  A    between atoms: C_84  and  C_87
REMARK   24  A    between atoms: C_87  and  C_88
REMARK   25  A    between atoms: C_102  and  C_105
REMARK   26  A    between atoms: C_105  and  C_106
REMARK   27  A    between atoms: C_106  and  O_107
REMARK                            x       y       z     vdW  Elec       q    Type
REMARK                         _______ _______ _______ _____ _____    ______ ____
ROOT
ATOM      1  N   UNK A   5       0.035   8.795  41.552  0.00  0.00    +0.000 N 
ATOM      2  C   UNK A   0       0.929   9.142  40.465  0.00  0.00    +0.000 C 
ATOM      3  C   UNK A   0       0.382   8.936  39.063  0.00  0.00    +0.000 C 
ATOM      4  O   UNK A   0       0.998   9.388  38.095  0.00  0.00    +0.000 OA
ATOM      5  N   ARG A   1      -0.752   8.249  38.929  0.00  0.00    +0.000 N 
ATOM      6  CA  ARG A   1      -1.356   8.084  37.609  0.00  0.00    +0.000 C 
ATOM      7  C   ARG A   1      -1.899   9.424  37.139  0.00  0.00    +0.000 C 
ATOM      8  O   ARG A   1      -2.567  10.130  37.901  0.00  0.00    +0.000 OA
ATOM      9  N   UNK A   2      -1.634   9.771  35.878  0.00  0.00    +0.000 N 
ATOM     10  C   UNK A   2      -2.259  10.927  35.249  0.00  0.00    +0.000 C 
ATOM     11  C   UNK A   2      -2.793  10.514  33.889  0.00  0.00    +0.000 C 
ATOM     12  O   UNK A   2      -2.091   9.863  33.107  0.00  0.00    +0.000 OA
ATOM     13  C   UNK A   2      -1.304  12.125  35.068  0.00  0.00    +0.000 C 
ATOM     14  S   UNK A   2      -0.844  13.024  36.580  0.00  0.00    +0.000 S 
ATOM     15  N   THR A   3      -4.036  10.896  33.608  0.00  0.00    +0.000 N 
ATOM     16  CA  THR A   3      -4.544  10.680  32.265  0.00  0.00    +0.000 C 
ATOM     17  C   THR A   3      -3.842  11.603  31.279  0.00  0.00    +0.000 C 
ATOM     18  O   THR A   3      -3.201  12.592  31.648  0.00  0.00    +0.000 OA
ATOM     19  N   LYS A   4      -3.984  11.275  29.995  0.00  0.00    +0.000 N 
ATOM     20  CA  LYS A   4      -3.318  12.007  28.926  0.00  0.00    +0.000 C 
ATOM     21  C   LYS A   4      -4.256  12.974  28.214  0.00  0.00    +0.000 C 
ATOM     22  O   LYS A   4      -4.136  13.207  27.008  0.00  0.00    +0.000 OA
ATOM     23  N   UNK A   5      -5.202  13.537  28.955  0.00  0.00    +0.000 N 
ATOM     24  C   UNK A   5      -6.091  14.571  28.457  0.00  0.00    +0.000 C 
ATOM     25  C   UNK A   5      -5.504  15.956  28.733  0.00  0.00    +0.000 C 
ATOM     26  O   UNK A   5      -4.566  16.123  29.515  0.00  0.00    +0.000 OA
ATOM     27  N   UNK A   5      -6.080  16.961  28.082  0.00  0.00    +0.000 N 
ATOM     28  C   UNK A   5      -5.777  18.355  28.391  0.00  0.00    +0.000 C 
ATOM     29  C   UNK A   5      -6.997  18.984  29.048  0.00  0.00    +0.000 C 
ATOM     30  O   UNK A   5      -8.026  19.167  28.381  0.00  0.00    +0.000 OA
ATOM     31  N   UNK A   5      -6.963  19.293  30.354  0.00  0.00    +0.000 N 
ATOM     32  C   UNK A   5      -5.853  19.052  31.280  0.00  0.00    +0.000 C 
ATOM     33  C   UNK A   5      -5.860  17.611  31.784  0.00  0.00    +0.000 C 
ATOM     34  O   UNK A   5      -6.866  16.918  31.619  0.00  0.00    +0.000 OA
ATOM     35  C   UNK A   5      -6.158  20.021  32.427  0.00  0.00    +0.000 C 
ATOM     36  C   UNK A   5      -7.646  20.052  32.471  0.00  0.00    +0.000 C 
ATOM     37  C   UNK A   5      -8.116  19.915  31.032  0.00  0.00    +0.000 C 
ATOM     38  N   UNK A   5      -4.745  17.159  32.355  0.00  0.00    +0.000 N 
ATOM     39  C   UNK A   5      -4.688  15.791  32.884  0.00  0.00    +0.000 C 
ATOM     40  C   UNK A   5      -5.521  15.651  34.145  0.00  0.00    +0.000 C 
ATOM     41  O   UNK A   5      -5.677  16.591  34.930  0.00  0.00    +0.000 OA
ATOM     42  C   UNK A   5      -3.202  15.605  33.210  0.00  0.00    +0.000 C 
ATOM     43  C   UNK A   5      -2.720  16.983  33.471  0.00  0.00    +0.000 C 
ATOM     44  C   UNK A   5      -3.458  17.860  32.504  0.00  0.00    +0.000 C 
ATOM     45  N   UNK A   5      -6.052  14.449  34.330  0.00  0.00    +0.000 N 
ATOM     46  C   UNK A   5      -6.720  14.053  35.563  0.00  0.00    +0.000 C 
ATOM     47  C   UNK A   5      -5.726  13.196  36.329  0.00  0.00    +0.000 C 
ATOM     48  O   UNK A   5      -5.253  12.179  35.812  0.00  0.00    +0.000 OA
ATOM     49  N   UNK A   5      -5.382  13.608  37.550  0.00  0.00    +0.000 N 
ATOM     50  C   UNK A   5      -4.295  12.974  38.282  0.00  0.00    +0.000 C 
ATOM     51  C   UNK A   5      -4.781  12.380  39.596  0.00  0.00    +0.000 C 
ATOM     52  O   UNK A   5      -5.780  12.819  40.182  0.00  0.00    +0.000 OA
ATOM     53  C   UNK A   5      -3.128  13.937  38.543  0.00  0.00    +0.000 C 
ATOM     54  S   UNK A   5      -2.268  14.466  37.027  0.00  0.00    +0.000 S 
ATOM     55  N   UNK A   5      -4.042  11.384  40.062  0.00  0.00    +0.000 N 
ATOM     56  C   UNK A   5      -4.385  10.615  41.245  0.00  0.00    +0.000 C 
ATOM     57  C   UNK A   5      -3.220  10.617  42.224  0.00  0.00    +0.000 C 
ATOM     58  O   UNK A   5      -2.069  10.819  41.830  0.00  0.00    +0.000 OA
ATOM     59  N   UNK A   5      -3.494  10.412  43.512  0.00  0.00    +0.000 N 
ATOM     60  C   UNK A   5      -2.408  10.466  44.508  0.00  0.00    +0.000 C 
ATOM     61  C   UNK A   5      -1.294   9.458  44.280  0.00  0.00    +0.000 C 
ATOM     62  O   UNK A   5      -0.157   9.703  44.709  0.00  0.00    +0.000 OA
ATOM     63  C   UNK A   5      -3.141  10.225  45.837  0.00  0.00    +0.000 C 
ATOM     64  C   UNK A   5      -4.527  10.709  45.577  0.00  0.00    +0.000 C 
ATOM     65  C   UNK A   5      -4.823  10.354  44.144  0.00  0.00    +0.000 C 
ATOM     66  N   UNK A   5      -1.578   8.332  43.631  0.00  0.00    +0.000 N 
ATOM     67  C   UNK A   5      -0.550   7.317  43.384  0.00  0.00    +0.000 C 
ATOM     68  C   UNK A   5       0.310   7.643  42.169  0.00  0.00    +0.000 C 
ATOM     69  O   UNK A   5       1.239   6.897  41.856  0.00  0.00    +0.000 OA
ATOM     70  O   UNK A   0       0.074   8.652  41.502  0.00  0.00    +0.000 OA
ATOM     71  H   ARG A   1      -1.199   7.838  39.749  0.00  0.00    +0.000 HD
ATOM     72  H   UNK A   2      -0.974   9.210  35.339  0.00  0.00    +0.000 HD
ATOM     73  H   THR A   3      -4.620  11.332  34.322  0.00  0.00    +0.000 HD
ATOM     74  H   LYS A   4      -4.580  10.484  29.752  0.00  0.00    +0.000 HD
ATOM     75  H   UNK A   5      -5.310  13.228  29.921  0.00  0.00    +0.000 HD
ATOM     76  H   UNK A   5      -6.753  16.752  27.345  0.00  0.00    +0.000 HD
ATOM     77  H   UNK A   5      -5.989  13.769  33.572  0.00  0.00    +0.000 HD
ATOM     78  H   UNK A   5      -5.890  14.382  37.979  0.00  0.00    +0.000 HD
ATOM     79  H   UNK A   5      -3.186  11.144  39.563  0.00  0.00    +0.000 HD
ATOM     80  H   UNK A   5      -2.529   8.172  43.299  0.00  0.00    +0.000 HD
ENDROOT
BRANCH  16  81
ATOM     81  CB  THR A   3      -6.045  10.945  32.205  0.00  0.00    +0.000 C 
ATOM     82  CG2 THR A   3      -6.786  10.115  33.251  0.00  0.00    +0.000 C 
BRANCH  81  83
ATOM     83  OG1 THR A   3      -6.296  12.345  32.387  0.00  0.00    +0.000 OA
ATOM     84  HG1 THR A   3      -7.241  12.507  32.349  0.00  0.00    +0.000 HD
ENDBRANCH  81  83
ENDBRANCH  16  81
BRANCH  46  85
ATOM     85  C   UNK A   5      -7.994  13.257  35.247  0.00  0.00    +0.000 C 
ATOM     86  C   UNK A   5      -8.609  12.677  36.511  0.00  0.00    +0.000 C 
BRANCH  85  87
ATOM     87  C   UNK A   5      -8.999  14.147  34.509  0.00  0.00    +0.000 C 
ATOM     88  C   UNK A   5      -9.986  13.390  33.646  0.00  0.00    +0.000 C 
ENDBRANCH  85  87
ENDBRANCH  46  85
BRANCH  24  89
ATOM     89  C   UNK A   5      -7.461  14.431  29.130  0.00  0.00    +0.000 C 
BRANCH  89  90
ATOM     90  O   UNK A   5      -7.328  14.334  30.556  0.00  0.00    +0.000 OA
ATOM     91  H   UNK A   5      -8.198  14.247  30.952  0.00  0.00    +0.000 HD
ENDBRANCH  89  90
ENDBRANCH  24  89
BRANCH  67  92
ATOM     92  C   UNK A   5      -1.176   5.925  43.230  0.00  0.00    +0.000 C 
BRANCH  92  93
ATOM     93  C   UNK A   5      -1.759   5.683  41.839  0.00  0.00    +0.000 C 
ATOM     94  O   UNK A   5      -1.783   4.500  41.429  0.00  0.00    +0.000 OA
BRANCH  93  95
ATOM     95  O   UNK A   5      -2.196   6.648  41.166  0.00  0.00    +0.000 OA
ATOM     96  H   UNK A   5      -2.082   7.461  41.663  0.00  0.00    +0.000 HD
ENDBRANCH  93  95
ENDBRANCH  92  93
ENDBRANCH  67  92
BRANCH  56  97
ATOM     97  C   UNK A   5      -4.728   9.173  40.838  0.00  0.00    +0.000 C 
BRANCH  97  98
ATOM     98  C   UNK A   5      -5.944   9.077  39.947  0.00  0.00    +0.000 A 
ATOM     99  C   UNK A   5      -7.211   8.959  40.488  0.00  0.00    +0.000 A 
ATOM    100  C   UNK A   5      -5.817   9.145  38.572  0.00  0.00    +0.000 A 
ATOM    101  C   UNK A   5      -8.334   8.886  39.657  0.00  0.00    +0.000 A 
ATOM    102  C   UNK A   5      -6.923   9.080  37.747  0.00  0.00    +0.000 A 
ATOM    103  C   UNK A   5      -8.181   8.947  38.288  0.00  0.00    +0.000 A 
ENDBRANCH  97  98
ENDBRANCH  56  97
BRANCH  28 104
ATOM    104  C   UNK A   5      -5.407  19.115  27.112  0.00  0.00    +0.000 C 
BRANCH 104 105
ATOM    105  C   UNK A   5      -5.075  20.582  27.351  0.00  0.00    +0.000 C 
BRANCH 105 106
ATOM    106  C   UNK A   5      -4.824  21.328  26.050  0.00  0.00    +0.000 C 
BRANCH 106 107
ATOM    107  N   UNK A   5      -6.061  21.600  25.325  0.00  0.00    +0.000 N 
ATOM    108  C   UNK A   5      -6.894  22.596  25.611  0.00  0.00    +0.000 C 
ATOM    109  N   UNK A   5      -6.627  23.424  26.615  0.00  0.00    +0.000 N 
ATOM    110  N   UNK A   5      -7.993  22.767  24.892  0.00  0.00    +0.000 NA
ATOM    111  H   UNK A   5      -6.303  20.985  24.548  0.00  0.00    +0.000 HD
ATOM    112  H   UNK A   5      -7.267  24.188  26.830  0.00  0.00    +0.000 HD
ATOM    113  H   UNK A   5      -5.782  23.296  27.171  0.00  0.00    +0.000 HD
ATOM    114  H   UNK A   5      -8.200  22.135  24.119  0.00  0.00    +0.000 HD
ENDBRANCH 106 107
ENDBRANCH 105 106
ENDBRANCH 104 105
ENDBRANCH  28 104
BRANCH  20 115
ATOM    115  CB  LYS A   4      -2.598  11.037  27.998  0.00  0.00    +0.000 C 
BRANCH 115 116
ATOM    116  CG  LYS A   4      -1.404  10.430  28.750  0.00  0.00    +0.000 C 
BRANCH 116 117
ATOM    117  CD  LYS A   4      -0.635   9.418  27.963  0.00  0.00    +0.000 C 
BRANCH 117 118
ATOM    118  CE  LYS A   4       0.460   8.833  28.835  0.00  0.00    +0.000 C 
BRANCH 118 119
ATOM    119  NZ  LYS A   4       1.236   7.821  28.107  0.00  0.00    +0.000 N 
ATOM    120  HZ1 LYS A   4       1.962   7.447  28.718  0.00  0.00    +0.000 HD
ATOM    121  HZ2 LYS A   4       0.616   7.066  27.812  0.00  0.00    +0.000 HD
ATOM    122  HZ3 LYS A   4       1.666   8.249  27.287  0.00  0.00    +0.000 HD
ENDBRANCH 118 119
ENDBRANCH 117 118
ENDBRANCH 116 117
ENDBRANCH 115 116
ENDBRANCH  20 115
BRANCH   6 123
ATOM    123  CB  ARG A   1      -2.520   7.087  37.674  0.00  0.00    +0.000 C 
BRANCH 123 124
ATOM    124  CG  ARG A   1      -2.131   5.650  37.953  0.00  0.00    +0.000 C 
BRANCH 124 125
ATOM    125  CD  ARG A   1      -3.192   4.659  37.453  0.00  0.00    +0.000 C 
BRANCH 125 126
ATOM    126  NE  ARG A   1      -4.557   4.960  37.896  0.00  0.00    +0.000 N 
ATOM    127  CZ  ARG A   1      -5.602   5.124  37.087  0.00  0.00    +0.000 C 
ATOM    128  NH1 ARG A   1      -5.452   5.044  35.767  0.00  0.00    +0.000 N 
ATOM    129  NH2 ARG A   1      -6.807   5.369  37.594  0.00  0.00    +0.000 NA
ATOM    130  HE  ARG A   1      -4.718   5.051  38.899  0.00  0.00    +0.000 HD
ATOM    131 HH11 ARG A   1      -6.257   5.170  35.154  0.00  0.00    +0.000 HD
ATOM    132 HH12 ARG A   1      -4.532   4.856  35.369  0.00  0.00    +0.000 HD
ATOM    133  HH2 ARG A   1      -6.932   5.432  38.604  0.00  0.00    +0.000 HD
ENDBRANCH 125 126
ENDBRANCH 124 125
ENDBRANCH 123 124
ENDBRANCH   6 123
TORSDOF 24
