REMARK  Name = 6ny0_ligand
REMARK  7 active torsions:
REMARK  status: ('A' for Active; 'I' for Inactive)
REMARK    1  A    between atoms: C_1  and  O_3
REMARK    2  A    between atoms: C_2  and  C_5
REMARK    3  A    between atoms: C_2  and  O_7
REMARK    4  A    between atoms: O_3  and  C_4
REMARK    5  A    between atoms: C_4  and  C_5
REMARK    6  A    between atoms: C_5  and  O_6
REMARK    7  A    between atoms: O_7  and  C_8
REMARK                            x       y       z     vdW  Elec       q    Type
REMARK                         _______ _______ _______ _____ _____    ______ ____
ROOT
ATOM      1  C   UNL     1       0.596   0.077   2.882  0.00  0.00    +0.000 C 
ENDROOT
BRANCH   1   2
ATOM      2  O   UNL     1       0.635   1.416   2.314  0.00  0.00    +0.000 OA
ATOM      3  H   UNL     1      -0.174   1.578   1.823  0.00  0.00    +0.000 HD
ENDBRANCH   1   2
BRANCH   1   4
ATOM      4  C   UNL     1      -0.544   0.040   3.895  0.00  0.00    +0.000 C 
BRANCH   4   5
ATOM      5  O   UNL     1      -1.817  -0.174   3.260  0.00  0.00    +0.000 OA
ATOM      6  C   UNL     1      -2.759   0.803   3.357  0.00  0.00    +0.000 C 
ENDBRANCH   4   5
ENDBRANCH   1   4
BRANCH   1   7
ATOM      7  C   UNL     1       1.824  -0.335   3.700  0.00  0.00    +0.000 C 
BRANCH   7   9
ATOM      8  C   UNL     1       3.892  -1.182   2.797  0.00  0.00    +0.000 C 
ATOM      9  O   UNL     1       3.047  -0.094   3.013  0.00  0.00    +0.000 OA
ENDBRANCH   7   9
ENDBRANCH   1   7
TORSDOF 5
