REMARK  Name = 6jao_ligand
REMARK  13 active torsions:
REMARK  status: ('A' for Active; 'I' for Inactive)
REMARK    1  A    between atoms: C_1  and  O_23
REMARK    2  A    between atoms: C_2  and  O_7
REMARK    3  A    between atoms: C_3  and  O_8
REMARK    4  A    between atoms: C_4  and  O_9
REMARK    5  A    between atoms: C_5  and  C_6
REMARK    6  A    between atoms: C_6  and  O_11
REMARK    7  A    between atoms: O_12  and  C_15
REMARK    8  A    between atoms: C_13  and  O_14
REMARK    9  A    between atoms: C_13  and  C_15
REMARK   10  A    between atoms: C_17  and  O_18
REMARK   11  A    between atoms: C_19  and  O_20
REMARK   12  A    between atoms: C_21  and  C_22
REMARK   13  A    between atoms: C_22  and  O_23
REMARK                            x       y       z     vdW  Elec       q    Type
REMARK                         _______ _______ _______ _____ _____    ______ ____
ROOT
ATOM      1  O   UNL     1      -7.082 -33.092 -15.846  0.00  0.00    +0.000 OA
ENDROOT
BRANCH   1   2
ATOM      2  C   UNL     1      -6.641 -32.572 -14.571  0.00  0.00    +0.000 C 
ATOM      3  C   UNL     1      -7.888 -32.407 -13.709  0.00  0.00    +0.000 C 
ATOM      4  C   UNL     1      -8.852 -31.401 -14.344  0.00  0.00    +0.000 C 
ATOM      5  C   UNL     1      -8.130 -30.060 -14.535  0.00  0.00    +0.000 C 
ATOM      6  C   UNL     1      -6.776 -30.281 -15.303  0.00  0.00    +0.000 C 
ATOM      7  O   UNL     1      -6.013 -31.326 -14.703  0.00  0.00    +0.000 OA
BRANCH   3   8
ATOM      8  O   UNL     1      -8.627 -33.624 -13.570  0.00  0.00    +0.000 OA
ATOM      9  H   UNL     1      -8.066 -34.294 -13.174  0.00  0.00    +0.000 HD
ENDBRANCH   3   8
BRANCH   4  10
ATOM     10  O   UNL     1     -10.019 -31.123 -13.517  0.00  0.00    +0.000 OA
ATOM     11  H   UNL     1     -10.506 -31.937 -13.369  0.00  0.00    +0.000 HD
ENDBRANCH   4  10
BRANCH   5  12
ATOM     12  O   UNL     1      -8.903 -29.053 -15.235  0.00  0.00    +0.000 OA
ATOM     13  H   UNL     1      -9.733 -28.910 -14.774  0.00  0.00    +0.000 HD
ENDBRANCH   5  12
BRANCH   6  14
ATOM     14  C   UNL     1      -5.904 -29.046 -15.353  0.00  0.00    +0.000 C 
BRANCH  14  15
ATOM     15  O   UNL     1      -4.718 -29.269 -16.170  0.00  0.00    +0.000 OA
ATOM     16  H   UNL     1      -4.185 -28.471 -16.183  0.00  0.00    +0.000 HD
ENDBRANCH  14  15
ENDBRANCH   6  14
ENDBRANCH   1   2
BRANCH   1  17
ATOM     17  C   UNL     1      -6.037 -33.323 -16.856  0.00  0.00    +0.000 C 
BRANCH  17  22
ATOM     18  C   UNL     1      -5.478 -36.633 -15.525  0.00  0.00    +0.000 C 
ATOM     19  O   UNL     1      -5.187 -35.235 -15.661  0.00  0.00    +0.000 OA
ATOM     20  C   UNL     1      -6.141 -37.020 -16.819  0.00  0.00    +0.000 C 
ATOM     21  C   UNL     1      -6.753 -35.729 -17.313  0.00  0.00    +0.000 C 
ATOM     22  C   UNL     1      -5.643 -34.780 -16.921  0.00  0.00    +0.000 C 
BRANCH  18  23
ATOM     23  O   UNL     1      -4.207 -37.270 -15.375  0.00  0.00    +0.000 OA
ATOM     24  H   UNL     1      -3.672 -37.102 -16.155  0.00  0.00    +0.000 HD
ENDBRANCH  18  23
BRANCH  20  25
ATOM     25  O   UNL     1      -7.070 -38.088 -16.669  0.00  0.00    +0.000 OA
ATOM     26  H   UNL     1      -7.461 -38.292 -17.521  0.00  0.00    +0.000 HD
ENDBRANCH  20  25
BRANCH  21  27
ATOM     27  O   UNL     1      -6.993 -35.789 -18.733  0.00  0.00    +0.000 OA
ATOM     28  H   UNL     1      -7.381 -34.961 -19.026  0.00  0.00    +0.000 HD
ENDBRANCH  21  27
BRANCH  18  29
ATOM     29  C   UNL     1      -6.331 -36.889 -14.303  0.00  0.00    +0.000 C 
BRANCH  29  30
ATOM     30  O   UNL     1      -5.612 -36.471 -13.113  0.00  0.00    +0.000 OA
ATOM     31  H   UNL     1      -6.155 -36.634 -12.338  0.00  0.00    +0.000 HD
ENDBRANCH  29  30
ENDBRANCH  18  29
ENDBRANCH  17  22
ENDBRANCH   1  17
TORSDOF 13
