REMARK  Name = 6qr3_ligand
REMARK  5 active torsions:
REMARK  status: ('A' for Active; 'I' for Inactive)
REMARK    1  A    between atoms: C_2  and  C_18
REMARK    2  A    between atoms: C_3  and  C_19
REMARK    3  A    between atoms: C_8  and  N_9
REMARK    4  A    between atoms: C_14  and  C_15
REMARK    5  A    between atoms: C_15  and  N_16
REMARK                            x       y       z     vdW  Elec       q    Type
REMARK                         _______ _______ _______ _____ _____    ______ ____
ROOT
ATOM      1  C   UNL     1     -23.406  21.011 -11.017  0.00  0.00    +0.000 A 
ATOM      2  C   UNL     1     -23.084  18.249 -11.583  0.00  0.00    +0.000 A 
ATOM      3  C   UNL     1     -24.321  18.704 -11.128  0.00  0.00    +0.000 A 
ATOM      4  C   UNL     1     -25.598  20.909 -10.374  0.00  0.00    +0.000 A 
ATOM      5  N   UNL     1     -23.847  22.289 -10.664  0.00  0.00    +0.000 N 
ATOM      6  C   UNL     1     -22.142  20.546 -11.473  0.00  0.00    +0.000 A 
ATOM      7  C   UNL     1     -22.009  19.174 -11.778  0.00  0.00    +0.000 A 
ATOM      8  C   UNL     1     -24.487  20.107 -10.849  0.00  0.00    +0.000 A 
ATOM      9  C   UNL     1     -25.143  22.252 -10.295  0.00  0.00    +0.000 A 
ENDROOT
BRANCH   7  10
ATOM     10  C   UNL     1     -20.654  18.706 -12.167  0.00  0.00    +0.000 A 
ATOM     11  C   UNL     1     -18.796  17.558 -12.590  0.00  0.00    +0.000 A 
ATOM     12  C   UNL     1     -20.151  17.419 -12.343  0.00  0.00    +0.000 A 
ATOM     13  N   UNL     1     -17.855  16.528 -12.862  0.00  0.00    +0.000 N 
ATOM     14  N   UNL     1     -18.484  18.865 -12.507  0.00  0.00    +0.000 NA
ATOM     15  N   UNL     1     -19.620  19.558 -12.224  0.00  0.00    +0.000 NA
ATOM     16  H   UNL     1     -18.158  15.555 -12.891  0.00  0.00    +0.000 HD
ATOM     17  H   UNL     1     -16.876  16.762 -13.028  0.00  0.00    +0.000 HD
BRANCH  12  18
ATOM     18  C   UNL     1     -20.845  16.043 -12.394  0.00  0.00    +0.000 C 
ATOM     19  N   UNL     1     -21.297  14.983 -12.445  0.00  0.00    +0.000 NA
ENDBRANCH  12  18
ENDBRANCH   7  10
BRANCH   5  20
ATOM     20  C   UNL     1     -23.030  23.499 -10.744  0.00  0.00    +0.000 C 
BRANCH  20  27
ATOM     21  C   UNL     1     -22.237  24.332  -6.146  0.00  0.00    +0.000 C 
ATOM     22  N   UNL     1     -21.653  24.076  -7.179  0.00  0.00    +0.000 N 
ATOM     23  C   UNL     1     -22.594  23.742  -8.207  0.00  0.00    +0.000 C 
ATOM     24  C   UNL     1     -20.731  25.134  -7.485  0.00  0.00    +0.000 C 
ATOM     25  C   UNL     1     -20.213  25.151  -8.904  0.00  0.00    +0.000 C 
ATOM     26  C   UNL     1     -21.187  24.817  -9.907  0.00  0.00    +0.000 C 
ATOM     27  C   UNL     1     -21.970  23.661  -9.594  0.00  0.00    +0.000 C 
ATOM     28  H   UNL     1     -21.074  23.241  -7.086  0.00  0.00    +0.000 HD
ENDBRANCH  20  27
ENDBRANCH   5  20
TORSDOF 4
