REMARK  Name = 6jsg_ligand
REMARK  4 active torsions:
REMARK  status: ('A' for Active; 'I' for Inactive)
REMARK    1  A    between atoms: C_4  and  C_6
REMARK    2  A    between atoms: C_6  and  C_7
REMARK    3  A    between atoms: N_9  and  C_22
REMARK    4  A    between atoms: C_14  and  C_15
REMARK                            x       y       z     vdW  Elec       q    Type
REMARK                         _______ _______ _______ _____ _____    ______ ____
ROOT
ATOM      1  C   UNL     1      21.613  39.236  -7.445  0.00  0.00    +0.000 A 
ATOM      2  C   UNL     1      21.359  38.583  -8.651  0.00  0.00    +0.000 A 
ATOM      3  C   UNL     1      20.040  38.368  -9.060  0.00  0.00    +0.000 A 
ATOM      4  C   UNL     1      18.896  38.824  -8.202  0.00  0.00    +0.000 A 
ATOM      5  C   UNL     1      19.231  39.473  -7.009  0.00  0.00    +0.000 A 
ATOM      6  F   UNL     1      19.816  37.746 -10.225  0.00  0.00    +0.000 F 
ATOM      7  C   UNL     1      20.558  39.685  -6.630  0.00  0.00    +0.000 A 
ENDROOT
BRANCH   4   8
ATOM      8  C   UNL     1      17.434  38.622  -8.601  0.00  0.00    +0.000 C 
ATOM      9  C   UNL     1      17.175  37.193  -9.061  0.00  0.00    +0.000 C 
ATOM     10  N   UNL     1      15.057  39.815  -6.097  0.00  0.00    +0.000 NA
ATOM     11  C   UNL     1      15.876  39.861  -7.148  0.00  0.00    +0.000 C 
ATOM     12  C   UNL     1      17.122  41.052  -9.385  0.00  0.00    +0.000 C 
ATOM     13  C   UNL     1      17.121  39.569  -9.780  0.00  0.00    +0.000 C 
ATOM     14  S   UNL     1      16.011  41.285  -8.022  0.00  0.00    +0.000 S 
ATOM     15  N   UNL     1      16.536  38.814  -7.450  0.00  0.00    +0.000 N 
ATOM     16  H   UNL     1      14.520  40.641  -5.832  0.00  0.00    +0.000 HD
ATOM     17  H   UNL     1      16.430  38.017  -6.822  0.00  0.00    +0.000 HD
ENDBRANCH   4   8
BRANCH   7  18
ATOM     18  N   UNL     1      20.739  40.315  -5.438  0.00  0.00    +0.000 N 
ATOM     19  C   UNL     1      21.842  40.885  -4.921  0.00  0.00    +0.000 C 
ATOM     20  O   UNL     1      22.961  40.805  -5.401  0.00  0.00    +0.000 OA
ATOM     21  H   UNL     1      19.910  40.362  -4.845  0.00  0.00    +0.000 HD
BRANCH  19  23
ATOM     22  N   UNL     1      20.593  41.312  -2.859  0.00  0.00    +0.000 NA
ATOM     23  C   UNL     1      21.656  41.644  -3.643  0.00  0.00    +0.000 A 
ATOM     24  C   UNL     1      20.333  41.933  -1.697  0.00  0.00    +0.000 A 
ATOM     25  C   UNL     1      21.176  42.948  -1.264  0.00  0.00    +0.000 A 
ATOM     26  C   UNL     1      22.295  43.310  -2.037  0.00  0.00    +0.000 A 
ATOM     27  C   UNL     1      22.542  42.654  -3.248  0.00  0.00    +0.000 A 
ATOM     28 CL   UNL     1      20.808  43.730   0.305  0.00  0.00    +0.000 Cl
ENDBRANCH  19  23
ENDBRANCH   7  18
TORSDOF 3
