REMARK  Name = 6p8z_ligand
REMARK  10 active torsions:
REMARK  status: ('A' for Active; 'I' for Inactive)
REMARK    1  A    between atoms: C_1  and  C_2
REMARK    2  A    between atoms: C_2  and  C_3
REMARK    3  A    between atoms: C_7  and  N_9
REMARK    4  A    between atoms: C_10  and  C_12
REMARK    5  A    between atoms: C_12  and  N_13
REMARK    6  A    between atoms: C_14  and  C_15
REMARK    7  A    between atoms: C_18  and  C_19
REMARK    8  A    between atoms: C_25  and  O_26
REMARK    9  A    between atoms: O_26  and  C_27
REMARK   10  A    between atoms: C_38  and  C_39
REMARK                            x       y       z     vdW  Elec       q    Type
REMARK                         _______ _______ _______ _____ _____    ______ ____
ROOT
ATOM      1  N   UNL     1       3.047 -15.415  33.875  0.00  0.00    +0.000 N 
ATOM      2  C   UNL     1       2.413 -15.475  35.063  0.00  0.00    +0.000 A 
ATOM      3  C   UNL     1       3.153 -14.703  35.967  0.00  0.00    +0.000 A 
ATOM      4  C   UNL     1       4.278 -14.157  35.249  0.00  0.00    +0.000 A 
ATOM      5  C   UNL     1       5.350 -13.311  35.669  0.00  0.00    +0.000 A 
ATOM      6  C   UNL     1       6.315 -12.950  34.711  0.00  0.00    +0.000 A 
ATOM      7 CL   UNL     1       7.644 -11.880  35.191  0.00  0.00    +0.000 Cl
ATOM      8  C   UNL     1       6.237 -13.404  33.380  0.00  0.00    +0.000 A 
ATOM      9  C   UNL     1       5.183 -14.238  32.979  0.00  0.00    +0.000 A 
ATOM     10  C   UNL     1       5.140 -14.715  31.512  0.00  0.00    +0.000 C 
ATOM     11  C   UNL     1       4.186 -14.619  33.958  0.00  0.00    +0.000 A 
ENDROOT
BRANCH   3  12
ATOM     12  C   UNL     1       2.857 -14.449  37.487  0.00  0.00    +0.000 C 
ATOM     13  O   UNL     1       3.045 -15.316  38.278  0.00  0.00    +0.000 OA
ATOM     14  N   UNL     1       2.395 -13.107  37.916  0.00  0.00    +0.000 N 
ATOM     15  C   UNL     1       2.082 -12.809  39.314  0.00  0.00    +0.000 C 
ATOM     16  C   UNL     1       0.534 -12.712  39.431  0.00  0.00    +0.000 C 
ATOM     17  C   UNL     1      -0.071 -11.911  38.229  0.00  0.00    +0.000 A 
ATOM     18  C   UNL     1      -1.442 -11.486  38.339  0.00  0.00    +0.000 A 
ATOM     19  C   UNL     1      -2.026 -10.763  37.286  0.00  0.00    +0.000 A 
ATOM     20  C   UNL     1      -1.277 -10.438  36.141  0.00  0.00    +0.000 A 
ATOM     21  C   UNL     1       0.062 -10.844  36.037  0.00  0.00    +0.000 A 
ATOM     22  C   UNL     1       0.667 -11.590  37.106  0.00  0.00    +0.000 A 
ATOM     23  C   UNL     1       2.134 -12.030  36.990  0.00  0.00    +0.000 C 
BRANCH  18  24
ATOM     24  O   UNL     1      -2.176 -11.829  39.508  0.00  0.00    +0.000 OA
ATOM     25  C   UNL     1      -3.216 -10.943  39.907  0.00  0.00    +0.000 C 
ENDBRANCH  18  24
ENDBRANCH   3  12
BRANCH   2  26
ATOM     26  C   UNL     1       1.106 -16.243  35.399  0.00  0.00    +0.000 C 
ATOM     27  C   UNL     1      -0.180 -15.585  34.872  0.00  0.00    +0.000 C 
ATOM     28  C   UNL     1      -0.122 -16.095  36.311  0.00  0.00    +0.000 C 
ENDBRANCH   2  26
BRANCH   1  29
ATOM     29  C   UNL     1       2.582 -16.082  32.649  0.00  0.00    +0.000 C 
BRANCH  29  31
ATOM     30  N   UNL     1       1.226 -15.374  30.543  0.00  0.00    +0.000 N 
ATOM     31  C   UNL     1       1.752 -15.024  31.862  0.00  0.00    +0.000 C 
ATOM     32  O   UNL     1       1.545 -13.937  32.309  0.00  0.00    +0.000 OA
ATOM     33  H   UNL     1       1.415 -16.297  30.152  0.00  0.00    +0.000 HD
BRANCH  30  38
ATOM     34  C   UNL     1       0.535 -14.167  26.234  0.00  0.00    +0.000 C 
ATOM     35  O   UNL     1       1.224 -13.358  25.715  0.00  0.00    +0.000 OA
ATOM     36  N   UNL     1       0.531 -14.282  27.688  0.00  0.00    +0.000 N 
ATOM     37  C   UNL     1      -0.203 -15.154  28.654  0.00  0.00    +0.000 C 
ATOM     38  C   UNL     1       0.428 -14.408  29.776  0.00  0.00    +0.000 C 
ATOM     39  C   UNL     1       1.229 -13.589  28.821  0.00  0.00    +0.000 C 
BRANCH  34  41
ATOM     40  C   UNL     1      -1.714 -14.467  25.034  0.00  0.00    +0.000 C 
ATOM     41  C   UNL     1      -0.367 -15.109  25.404  0.00  0.00    +0.000 C 
ENDBRANCH  34  41
ENDBRANCH  30  38
ENDBRANCH  29  31
ENDBRANCH   1  29
TORSDOF 7
