REMARK  Name = 6quv_ligand
REMARK  3 active torsions:
REMARK  status: ('A' for Active; 'I' for Inactive)
REMARK    1  A    between atoms: C_4  and  C_23
REMARK    2  A    between atoms: C_12  and  N_24
REMARK    3  A    between atoms: C_23  and  C_26
REMARK                            x       y       z     vdW  Elec       q    Type
REMARK                         _______ _______ _______ _____ _____    ______ ____
ROOT
ATOM      1  C   UNL     1      -5.141 -16.555  23.676  0.00  0.00    +0.000 A 
ATOM      2  C   UNL     1      -5.153 -16.728  25.059  0.00  0.00    +0.000 A 
ATOM      3  C   UNL     1      -6.189 -17.422  25.682  0.00  0.00    +0.000 A 
ATOM      4  C   UNL     1      -4.886 -16.279  27.304  0.00  0.00    +0.000 C 
ATOM      5  C   UNL     1      -6.758 -14.739  27.967  0.00  0.00    +0.000 C 
ATOM      6  C   UNL     1      -7.184 -17.208  28.021  0.00  0.00    +0.000 A 
ATOM      7  C   UNL     1      -9.023 -18.083  29.318  0.00  0.00    +0.000 A 
ATOM      8  C   UNL     1      -8.648 -15.712  29.253  0.00  0.00    +0.000 A 
ATOM      9  C   UNL     1      -6.152 -17.145  22.926  0.00  0.00    +0.000 A 
ATOM     10  C   UNL     1      -7.176 -17.855  23.546  0.00  0.00    +0.000 A 
ATOM     11  C   UNL     1      -7.176 -18.031  24.921  0.00  0.00    +0.000 A 
ATOM     12  N   UNL     1      -4.245 -16.249  25.990  0.00  0.00    +0.000 N 
ATOM     13  C   UNL     1      -5.940 -17.424  27.180  0.00  0.00    +0.000 C 
ATOM     14  N   UNL     1      -5.511 -14.976  27.521  0.00  0.00    +0.000 N 
ATOM     15  C   UNL     1      -7.535 -15.908  28.426  0.00  0.00    +0.000 A 
ATOM     16  C   UNL     1      -7.922 -18.287  28.501  0.00  0.00    +0.000 A 
ATOM     17  C   UNL     1      -9.392 -16.801  29.684  0.00  0.00    +0.000 A 
ATOM     18  O   UNL     1      -7.224 -13.603  27.987  0.00  0.00    +0.000 OA
ATOM     19  H   UNL     1      -3.296 -15.931  25.793  0.00  0.00    +0.000 HD
ATOM     20  H   UNL     1      -4.940 -14.157  27.312  0.00  0.00    +0.000 HD
ENDROOT
BRANCH   4  25
ATOM     21  C   UNL     1      -4.331 -16.563  29.914  0.00  0.00    +0.000 C 
ATOM     22  C   UNL     1      -3.299 -16.669  31.030  0.00  0.00    +0.000 C 
ATOM     23  C   UNL     1      -2.982 -17.854  28.429  0.00  0.00    +0.000 C 
ATOM     24  C   UNL     1      -1.322 -17.882  31.892  0.00  0.00    +0.000 C 
ATOM     25  C   UNL     1      -3.753 -16.518  28.485  0.00  0.00    +0.000 C 
ATOM     26  N   UNL     1      -2.426 -17.888  30.889  0.00  0.00    +0.000 N 
ATOM     27  C   UNL     1      -1.891 -18.007  29.489  0.00  0.00    +0.000 C 
ATOM     28  C   UNL     1      -2.763 -15.349  28.379  0.00  0.00    +0.000 C 
ATOM     29  H   UNL     1      -3.003 -18.709  31.073  0.00  0.00    +0.000 HD
ENDBRANCH   4  25
TORSDOF 1
