REMARK  Name = 6mhd_ligand
REMARK  6 active torsions:
REMARK  status: ('A' for Active; 'I' for Inactive)
REMARK    1  A    between atoms: C_2  and  C_3
REMARK    2  A    between atoms: C_3  and  C_4
REMARK    3  A    between atoms: N_5  and  C_6
REMARK    4  A    between atoms: C_6  and  C_7
REMARK    5  A    between atoms: C_10  and  C_11
REMARK    6  A    between atoms: C_16  and  C_18
REMARK                            x       y       z     vdW  Elec       q    Type
REMARK                         _______ _______ _______ _____ _____    ______ ____
ROOT
ATOM      1  O   UNL     1      28.462   3.952  10.363  0.00  0.00    +0.000 OA
ATOM      2  C   UNL     1      27.592   4.113   9.520  0.00  0.00    +0.000 C 
ATOM      3  N   UNL     1      26.772   5.259   9.574  0.00  0.00    +0.000 N 
ATOM      4  C   UNL     1      26.589   5.993  10.746  0.00  0.00    +0.000 A 
ATOM      5  S   UNL     1      26.937   5.366  12.331  0.00  0.00    +0.000 S 
ATOM      6  C   UNL     1      26.175   6.769  12.978  0.00  0.00    +0.000 A 
ATOM      7  C   UNL     1      25.729   7.593  11.992  0.00  0.00    +0.000 A 
ATOM      8  N   UNL     1      25.998   7.154  10.716  0.00  0.00    +0.000 NA
ENDROOT
BRANCH   7   9
ATOM      9  C   UNL     1      24.921   8.815  12.144  0.00  0.00    +0.000 A 
ATOM     10  C   UNL     1      23.992   8.926  13.176  0.00  0.00    +0.000 A 
ATOM     11  C   UNL     1      23.070   9.959  13.180  0.00  0.00    +0.000 A 
ATOM     12  C   UNL     1      23.116  10.940  12.212  0.00  0.00    +0.000 A 
ATOM     13  C   UNL     1      24.057  10.867  11.208  0.00  0.00    +0.000 A 
ATOM     14  C   UNL     1      24.948   9.809  11.161  0.00  0.00    +0.000 A 
ENDBRANCH   7   9
BRANCH   2  15
ATOM     15  C   UNL     1      27.402   3.126   8.388  0.00  0.00    +0.000 C 
ATOM     16  C   UNL     1      28.160   1.835   8.612  0.00  0.00    +0.000 C 
ENDBRANCH   2  15
BRANCH   3  17
ATOM     17  C   UNL     1      26.424   5.900   8.305  0.00  0.00    +0.000 C 
BRANCH  17  18
ATOM     18  C   UNL     1      24.982   6.253   8.201  0.00  0.00    +0.000 A 
ATOM     19  O   UNL     1      24.603   7.538   8.354  0.00  0.00    +0.000 OA
ATOM     20  N   UNL     1      23.186   7.596   8.285  0.00  0.00    +0.000 NA
ATOM     21  C   UNL     1      22.780   6.322   8.084  0.00  0.00    +0.000 A 
ATOM     22  C   UNL     1      21.331   5.953   7.998  0.00  0.00    +0.000 C 
ATOM     23  C   UNL     1      23.903   5.481   8.019  0.00  0.00    +0.000 A 
ENDBRANCH  17  18
ENDBRANCH   3  17
TORSDOF 4
