REMARK  Name = 6g29_ligand
REMARK  3 active torsions:
REMARK  status: ('A' for Active; 'I' for Inactive)
REMARK    1  A    between atoms: C_2  and  C_15
REMARK    2  A    between atoms: C_6  and  N_13
REMARK    3  A    between atoms: C_9  and  C_10
REMARK                            x       y       z     vdW  Elec       q    Type
REMARK                         _______ _______ _______ _____ _____    ______ ____
ROOT
ATOM      1  C   UNL     1      -4.837   5.790 -20.530  0.00  0.00    +0.000 C 
ATOM      2  C   UNL     1      -3.486   8.168 -19.999  0.00  0.00    +0.000 C 
ATOM      3  C   UNL     1      -2.994   7.354 -17.566  0.00  0.00    +0.000 C 
ATOM      4  C   UNL     1      -3.556   7.148 -18.947  0.00  0.00    +0.000 C 
ATOM      5  C   UNL     1      -4.242   6.019 -19.246  0.00  0.00    +0.000 C 
ATOM      6  O   UNL     1      -5.423   4.758 -20.849  0.00  0.00    +0.000 OA
ATOM      7  N   UNL     1      -4.688   6.812 -21.449  0.00  0.00    +0.000 N 
ATOM      8  N   UNL     1      -4.028   7.988 -21.170  0.00  0.00    +0.000 N 
ATOM      9  H   UNL     1      -3.963   8.718 -21.880  0.00  0.00    +0.000 HD
ENDROOT
BRANCH   7  10
ATOM     10  C   UNL     1      -5.301   6.761 -22.795  0.00  0.00    +0.000 C 
ATOM     11  C   UNL     1      -4.907   7.068 -25.244  0.00  0.00    +0.000 C 
ATOM     12  C   UNL     1      -6.485   7.724 -22.877  0.00  0.00    +0.000 C 
ATOM     13  C   UNL     1      -4.262   7.072 -23.871  0.00  0.00    +0.000 C 
ATOM     14  N   UNL     1      -6.045   8.031 -25.289  0.00  0.00    +0.000 N 
ATOM     15  C   UNL     1      -7.085   7.711 -24.270  0.00  0.00    +0.000 C 
ATOM     16  H   UNL     1      -6.474   7.976 -26.212  0.00  0.00    +0.000 HD
ATOM     17  H   UNL     1      -5.682   8.964 -25.093  0.00  0.00    +0.000 HD
ENDBRANCH   7  10
BRANCH   2  21
ATOM     18  C   UNL     1      -1.456   9.577 -19.582  0.00  0.00    +0.000 A 
ATOM     19  N   UNL     1      -1.570  11.972 -19.650  0.00  0.00    +0.000 NA
ATOM     20  C   UNL     1      -2.872  11.863 -19.937  0.00  0.00    +0.000 A 
ATOM     21  C   UNL     1      -2.823   9.480 -19.820  0.00  0.00    +0.000 A 
ATOM     22  C   UNL     1      -0.880  10.833 -19.516  0.00  0.00    +0.000 A 
ATOM     23  C   UNL     1      -3.539  10.655 -20.020  0.00  0.00    +0.000 A 
ENDBRANCH   2  21
TORSDOF 2
