REMARK  Name = 6jad_ligand
REMARK  13 active torsions:
REMARK  status: ('A' for Active; 'I' for Inactive)
REMARK    1  A    between atoms: C_1  and  O_23
REMARK    2  A    between atoms: C_2  and  O_7
REMARK    3  A    between atoms: C_3  and  O_8
REMARK    4  A    between atoms: C_4  and  O_9
REMARK    5  A    between atoms: C_5  and  C_6
REMARK    6  A    between atoms: C_6  and  O_11
REMARK    7  A    between atoms: O_12  and  C_15
REMARK    8  A    between atoms: C_13  and  O_14
REMARK    9  A    between atoms: C_13  and  C_15
REMARK   10  A    between atoms: C_17  and  O_18
REMARK   11  A    between atoms: C_19  and  O_20
REMARK   12  A    between atoms: C_21  and  C_22
REMARK   13  A    between atoms: C_22  and  O_23
REMARK                            x       y       z     vdW  Elec       q    Type
REMARK                         _______ _______ _______ _____ _____    ______ ____
ROOT
ATOM      1  O   UNL     1      -6.941 -32.948 -15.586  0.00  0.00    +0.000 OA
ENDROOT
BRANCH   1   2
ATOM      2  C   UNL     1      -6.491 -32.409 -14.349  0.00  0.00    +0.000 C 
ATOM      3  C   UNL     1      -7.755 -32.132 -13.512  0.00  0.00    +0.000 C 
ATOM      4  C   UNL     1      -8.660 -31.123 -14.182  0.00  0.00    +0.000 C 
ATOM      5  C   UNL     1      -7.827 -29.873 -14.399  0.00  0.00    +0.000 C 
ATOM      6  C   UNL     1      -6.546 -30.191 -15.164  0.00  0.00    +0.000 C 
ATOM      7  O   UNL     1      -5.800 -31.198 -14.515  0.00  0.00    +0.000 OA
BRANCH   3   8
ATOM      8  O   UNL     1      -8.454 -33.350 -13.283  0.00  0.00    +0.000 OA
ATOM      9  H   UNL     1      -7.867 -33.979 -12.858  0.00  0.00    +0.000 HD
ENDBRANCH   3   8
BRANCH   4  10
ATOM     10  O   UNL     1      -9.855 -30.856 -13.368  0.00  0.00    +0.000 OA
ATOM     11  H   UNL     1     -10.352 -31.669 -13.255  0.00  0.00    +0.000 HD
ENDBRANCH   4  10
BRANCH   5  12
ATOM     12  O   UNL     1      -8.638 -28.842 -15.034  0.00  0.00    +0.000 OA
ATOM     13  H   UNL     1      -9.426 -28.687 -14.508  0.00  0.00    +0.000 HD
ENDBRANCH   5  12
BRANCH   6  14
ATOM     14  C   UNL     1      -5.653 -28.962 -15.181  0.00  0.00    +0.000 C 
BRANCH  14  15
ATOM     15  O   UNL     1      -4.491 -29.116 -16.012  0.00  0.00    +0.000 OA
ATOM     16  H   UNL     1      -3.969 -28.311 -15.982  0.00  0.00    +0.000 HD
ENDBRANCH  14  15
ENDBRANCH   6  14
ENDBRANCH   1   2
BRANCH   1  17
ATOM     17  C   UNL     1      -5.879 -33.114 -16.540  0.00  0.00    +0.000 C 
BRANCH  17  22
ATOM     18  C   UNL     1      -5.261 -36.496 -15.315  0.00  0.00    +0.000 C 
ATOM     19  O   UNL     1      -5.026 -35.090 -15.395  0.00  0.00    +0.000 OA
ATOM     20  C   UNL     1      -5.916 -36.896 -16.613  0.00  0.00    +0.000 C 
ATOM     21  C   UNL     1      -6.519 -35.574 -17.102  0.00  0.00    +0.000 C 
ATOM     22  C   UNL     1      -5.468 -34.579 -16.654  0.00  0.00    +0.000 C 
BRANCH  18  23
ATOM     23  O   UNL     1      -4.004 -37.143 -15.126  0.00  0.00    +0.000 OA
ATOM     24  H   UNL     1      -3.442 -36.975 -15.886  0.00  0.00    +0.000 HD
ENDBRANCH  18  23
BRANCH  20  25
ATOM     25  O   UNL     1      -6.861 -37.962 -16.472  0.00  0.00    +0.000 OA
ATOM     26  H   UNL     1      -7.240 -38.168 -17.330  0.00  0.00    +0.000 HD
ENDBRANCH  20  25
BRANCH  21  27
ATOM     27  O   UNL     1      -6.805 -35.624 -18.539  0.00  0.00    +0.000 OA
ATOM     28  H   UNL     1      -7.181 -34.786 -18.819  0.00  0.00    +0.000 HD
ENDBRANCH  21  27
BRANCH  18  29
ATOM     29  C   UNL     1      -6.099 -36.801 -14.081  0.00  0.00    +0.000 C 
BRANCH  29  30
ATOM     30  O   UNL     1      -5.438 -36.255 -12.914  0.00  0.00    +0.000 OA
ATOM     31  H   UNL     1      -5.962 -36.445 -12.133  0.00  0.00    +0.000 HD
ENDBRANCH  29  30
ENDBRANCH  18  29
ENDBRANCH  17  22
ENDBRANCH   1  17
TORSDOF 13
