REMARK  Name = 6te6_ligand
REMARK  7 active torsions:
REMARK  status: ('A' for Active; 'I' for Inactive)
REMARK    1  A    between atoms: C_1  and  N_23
REMARK    2  A    between atoms: C_4  and  S_24
REMARK    3  A    between atoms: C_5  and  C_6
REMARK    4  A    between atoms: C_5  and  C_11
REMARK    5  A    between atoms: C_5  and  N_23
REMARK    6  A    between atoms: C_20  and  S_24
REMARK    7  A    between atoms: C_22  and  N_29
REMARK                            x       y       z     vdW  Elec       q    Type
REMARK                         _______ _______ _______ _____ _____    ______ ____
ROOT
ATOM      1  C   UNL     1      31.588 -10.479  10.721  0.00  0.00    +0.000 A 
ATOM      2  C   UNL     1      31.327 -10.955   9.423  0.00  0.00    +0.000 A 
ATOM      3  C   UNL     1      30.139 -11.618   9.140  0.00  0.00    +0.000 A 
ATOM      4  C   UNL     1      29.174 -11.744  10.150  0.00  0.00    +0.000 A 
ATOM      5  C   UNL     1      29.402 -11.236  11.432  0.00  0.00    +0.000 A 
ATOM      6  C   UNL     1      30.629 -10.612  11.740  0.00  0.00    +0.000 A 
ENDROOT
BRANCH   6  10
ATOM      7  C   UNL     1      30.539 -10.427  14.227  0.00  0.00    +0.000 A 
ATOM      8  C   UNL     1      30.610  -9.894  16.553  0.00  0.00    +0.000 A 
ATOM      9  C   UNL     1      29.856 -11.047  16.850  0.00  0.00    +0.000 A 
ATOM     10  N   UNL     1      30.899 -10.048  12.965  0.00  0.00    +0.000 N 
ATOM     11  N   UNL     1      30.922  -9.615  15.253  0.00  0.00    +0.000 NA
ATOM     12  C   UNL     1      29.462 -11.872  15.773  0.00  0.00    +0.000 A 
ATOM     13  N   UNL     1      29.803 -11.541  14.496  0.00  0.00    +0.000 NA
ATOM     14  H   UNL     1      31.466  -9.201  12.924  0.00  0.00    +0.000 HD
ENDBRANCH   6  10
BRANCH   4  16
ATOM     15  C   UNL     1      26.678 -11.142   9.080  0.00  0.00    +0.000 C 
ATOM     16  S   UNL     1      27.640 -12.514   9.752  0.00  0.00    +0.000 S 
ATOM     17  O   UNL     1      27.069 -12.941  11.024  0.00  0.00    +0.000 OA
ATOM     18  O   UNL     1      27.904 -13.482   8.716  0.00  0.00    +0.000 OA
ENDBRANCH   4  16
BRANCH   1  19
ATOM     19  N   UNL     1      32.784  -9.934  11.016  0.00  0.00    +0.000 N 
ATOM     20  H   UNL     1      32.941  -9.591  11.964  0.00  0.00    +0.000 HD
BRANCH  19  21
ATOM     21  C   UNL     1      33.862  -9.811  10.046  0.00  0.00    +0.000 C 
BRANCH  21  22
ATOM     22  C   UNL     1      33.589  -8.660   9.059  0.00  0.00    +0.000 A 
ATOM     23  C   UNL     1      33.107  -7.412   9.495  0.00  0.00    +0.000 A 
ATOM     24  C   UNL     1      32.924  -6.346   8.575  0.00  0.00    +0.000 A 
ATOM     25  C   UNL     1      33.253  -6.530   7.221  0.00  0.00    +0.000 A 
ATOM     26  C   UNL     1      33.790  -7.768   6.797  0.00  0.00    +0.000 A 
ATOM     27  C   UNL     1      33.943  -8.825   7.710  0.00  0.00    +0.000 A 
ATOM     28 CL   UNL     1      34.217  -8.064   5.114  0.00  0.00    +0.000 Cl
ENDBRANCH  21  22
BRANCH  21  29
ATOM     29  C   UNL     1      35.202  -9.505  10.718  0.00  0.00    +0.000 A 
ATOM     30  C   UNL     1      36.287  -8.590  12.632  0.00  0.00    +0.000 A 
ATOM     31  C   UNL     1      37.547  -8.845  12.071  0.00  0.00    +0.000 A 
ATOM     32  C   UNL     1      37.615  -9.438  10.799  0.00  0.00    +0.000 A 
ATOM     33  C   UNL     1      36.438  -9.788  10.113  0.00  0.00    +0.000 A 
ATOM     34  N   UNL     1      35.169  -8.924  11.942  0.00  0.00    +0.000 NA
ENDBRANCH  21  29
ENDBRANCH  19  21
ENDBRANCH   1  19
TORSDOF 6
