REMARK  Name = 6mhb_ligand
REMARK  3 active torsions:
REMARK  status: ('A' for Active; 'I' for Inactive)
REMARK    1  A    between atoms: C_1  and  C_6
REMARK    2  A    between atoms: C_1  and  C_7
REMARK    3  A    between atoms: C_3  and  C_11
REMARK                            x       y       z     vdW  Elec       q    Type
REMARK                         _______ _______ _______ _____ _____    ______ ____
ROOT
ATOM      1  C   UNL     1      -2.598   8.151  -2.079  0.00  0.00    +0.000 A 
ATOM      2  C   UNL     1      -0.439   8.754  -1.778  0.00  0.00    +0.000 A 
ATOM      3  C   UNL     1      -0.860   8.864  -0.490  0.00  0.00    +0.000 A 
ATOM      4  O   UNL     1      -5.086   7.110  -0.859  0.00  0.00    +0.000 OA
ATOM      5  C   UNL     1      -4.890   7.077  -2.052  0.00  0.00    +0.000 C 
ATOM      6  N   UNL     1      -3.717   7.570  -2.687  0.00  0.00    +0.000 N 
ATOM      7  S   UNL     1      -2.523   8.451  -0.326  0.00  0.00    +0.000 S 
ATOM      8  N   UNL     1      -1.451   8.360  -2.703  0.00  0.00    +0.000 NA
ATOM      9  H   UNL     1      -3.688   7.491  -3.704  0.00  0.00    +0.000 HD
ENDROOT
BRANCH   2  10
ATOM     10  C   UNL     1       0.891   9.065  -2.330  0.00  0.00    +0.000 A 
ATOM     11  C   UNL     1       1.860   9.759  -1.585  0.00  0.00    +0.000 A 
ATOM     12  C   UNL     1       3.130   9.973  -2.124  0.00  0.00    +0.000 A 
ATOM     13  C   UNL     1       3.424   9.484  -3.414  0.00  0.00    +0.000 A 
ATOM     14 CL   UNL     1       4.976   9.750  -4.099  0.00  0.00    +0.000 Cl
ATOM     15  C   UNL     1       2.503   8.799  -4.169  0.00  0.00    +0.000 A 
ATOM     16  C   UNL     1       1.238   8.577  -3.630  0.00  0.00    +0.000 A 
ENDBRANCH   2  10
BRANCH   5  17
ATOM     17  C   UNL     1      -5.875   6.456  -2.992  0.00  0.00    +0.000 C 
ATOM     18  C   UNL     1      -6.186   5.005  -2.562  0.00  0.00    +0.000 C 
ENDBRANCH   5  17
TORSDOF 2
