REMARK  Name = 6n0m_ligand
REMARK  8 active torsions:
REMARK  status: ('A' for Active; 'I' for Inactive)
REMARK    1  A    between atoms: C_2  and  OXT_3
REMARK    2  A    between atoms: C_2  and  CA_4
REMARK    3  A    between atoms: CA_4  and  N_5
REMARK    4  A    between atoms: CA_4  and  C_6
REMARK    5  A    between atoms: C_6  and  C_7
REMARK    6  A    between atoms: C_7  and  C_8
REMARK    7  A    between atoms: C_7  and  C_9
REMARK    8  A    between atoms: C_7  and  C_10
REMARK                            x       y       z     vdW  Elec       q    Type
REMARK                         _______ _______ _______ _____ _____    ______ ____
ROOT
ATOM      1  CA  UNL     1     -29.800  54.004  76.960  0.00  0.00    +0.000 C 
ENDROOT
BRANCH   1   2
ATOM      2  N   UNL     1     -30.740  53.351  76.017  0.00  0.00    +0.000 N 
ATOM      3  H1  UNL     1     -30.840  52.367  76.265  0.00  0.00    +0.000 HD
ATOM      4  H2  UNL     1     -31.649  53.810  76.072  0.00  0.00    +0.000 HD
ATOM      5  H3  UNL     1     -30.376  53.428  75.067  0.00  0.00    +0.000 HD
ENDBRANCH   1   2
BRANCH   1   7
ATOM      6  O   UNL     1     -31.068  52.983  78.682  0.00  0.00    +0.000 OA
ATOM      7  C   UNL     1     -30.360  53.919  78.344  0.00  0.00    +0.000 C 
BRANCH   7   8
ATOM      8  OXT UNL     1     -30.102  54.880  79.225  0.00  0.00    +0.000 OA
ATOM      9  HXT UNL     1     -29.538  55.542  78.819  0.00  0.00    +0.000 HD
ENDBRANCH   7   8
ENDBRANCH   1   7
BRANCH   1  10
ATOM     10  C   UNL     1     -29.615  55.475  76.635  0.00  0.00    +0.000 C 
BRANCH  10  11
ATOM     11  C   UNL     1     -28.664  55.764  75.476  0.00  0.00    +0.000 C 
ATOM     12  C   UNL     1     -28.817  54.794  74.307  0.00  0.00    +0.000 C 
ATOM     13  C   UNL     1     -27.215  55.698  75.970  0.00  0.00    +0.000 C 
BRANCH  11  14
ATOM     14  C   UNL     1     -29.064  57.178  75.032  0.00  0.00    +0.000 C 
ATOM     15  F   UNL     1     -28.527  58.008  75.975  0.00  0.00    +0.000 F 
ATOM     16  F   UNL     1     -28.668  57.517  73.758  0.00  0.00    +0.000 F 
ENDBRANCH  11  14
ENDBRANCH  10  11
ENDBRANCH   1  10
TORSDOF 6
