REMARK  Name = 6efk_ligand
REMARK  30 active torsions:
REMARK  status: ('A' for Active; 'I' for Inactive)
REMARK    1  A    between atoms: C_1  and  C_3
REMARK    2  A    between atoms: N_4  and  CA_5
REMARK    3  A    between atoms: CA_5  and  C_6
REMARK    4  A    between atoms: CA_5  and  CB_8
REMARK    5  A    between atoms: CB_8  and  CG1_9
REMARK    6  A    between atoms: CB_8  and  CG2_10
REMARK    7  A    between atoms: CG1_9  and  CD1_11
REMARK    8  A    between atoms: N_12  and  CA_13
REMARK    9  A    between atoms: CA_13  and  C_14
REMARK   10  A    between atoms: CA_13  and  CB_16
REMARK   11  A    between atoms: CB_16  and  CG_17
REMARK   12  A    between atoms: CG_17  and  CD_18
REMARK   13  A    between atoms: CD_18  and  OE2_20
REMARK   14  A    between atoms: N_21  and  CA_22
REMARK   15  A    between atoms: CA_22  and  C_23
REMARK   16  A    between atoms: CA_22  and  CB_25
REMARK   17  A    between atoms: CB_25  and  CG_26
REMARK   18  A    between atoms: CG_26  and  CD_27
REMARK   19  A    between atoms: CD_27  and  OE2_29
REMARK   20  A    between atoms: N_30  and  CA_31
REMARK   21  A    between atoms: CA_31  and  C_32
REMARK   22  A    between atoms: CA_31  and  CB_34
REMARK   23  A    between atoms: CB_34  and  CG1_35
REMARK   24  A    between atoms: CB_34  and  CG2_36
REMARK   25  A    between atoms: N_37  and  CA_38
REMARK   26  A    between atoms: CA_38  and  C_39
REMARK   27  A    between atoms: CA_38  and  CB_41
REMARK   28  A    between atoms: C_39  and  O_40
REMARK   29  A    between atoms: CB_41  and  CG_42
REMARK   30  A    between atoms: CG_42  and  OD1_43
REMARK                            x       y       z     vdW  Elec       q    Type
REMARK                         _______ _______ _______ _____ _____    ______ ____
ROOT
ATOM      1  CA  GLU A   3      -4.042  10.652  33.207  0.00  0.00    +0.000 C 
ENDROOT
BRANCH   1   4
ATOM      2  C   GLU A   2      -4.346   8.937  31.489  0.00  0.00    +0.000 C 
ATOM      3  O   GLU A   2      -3.249   9.159  30.966  0.00  0.00    +0.000 OA
ATOM      4  N   GLU A   3      -4.793   9.586  32.570  0.00  0.00    +0.000 N 
ATOM      5  H   GLU A   3      -5.697   9.321  32.962  0.00  0.00    +0.000 HD
BRANCH   2   6
ATOM      6  CA  GLU A   2      -5.325   7.883  30.969  0.00  0.00    +0.000 C 
BRANCH   6   9
ATOM      7  C   ILE A   1      -7.558   8.664  31.546  0.00  0.00    +0.000 C 
ATOM      8  O   ILE A   1      -7.392   8.347  32.721  0.00  0.00    +0.000 OA
ATOM      9  N   GLU A   2      -6.605   8.509  30.627  0.00  0.00    +0.000 N 
ATOM     10  H   GLU A   2      -6.769   8.830  29.673  0.00  0.00    +0.000 HD
BRANCH   7  11
ATOM     11  CA  ILE A   1      -8.885   9.277  31.088  0.00  0.00    +0.000 C 
BRANCH  11  15
ATOM     12  C   UNK A   0      -8.295  11.387  30.003  0.00  0.00    +0.000 C 
ATOM     13  O   UNK A   0      -7.970  11.928  31.062  0.00  0.00    +0.000 OA
ATOM     14  C   UNK A   0      -8.223  12.104  28.694  0.00  0.00    +0.000 C 
ATOM     15  N   ILE A   1      -8.724  10.130  29.914  0.00  0.00    +0.000 N 
ATOM     16  H   ILE A   1      -8.948   9.750  28.994  0.00  0.00    +0.000 HD
ENDBRANCH  11  15
BRANCH  11  17
ATOM     17  CB  ILE A   1      -9.988   8.222  30.877  0.00  0.00    +0.000 C 
ATOM     18  CG2 ILE A   1      -9.496   7.114  29.942  0.00  0.00    +0.000 C 
BRANCH  17  19
ATOM     19  CG1 ILE A   1     -10.452   7.655  32.225  0.00  0.00    +0.000 C 
ATOM     20  CD1 ILE A   1     -11.672   6.794  32.128  0.00  0.00    +0.000 C 
ENDBRANCH  17  19
ENDBRANCH  11  17
ENDBRANCH   7  11
ENDBRANCH   6   9
BRANCH   6  21
ATOM     21  CB  GLU A   2      -4.782   7.058  29.805  0.00  0.00    +0.000 C 
BRANCH  21  22
ATOM     22  CG  GLU A   2      -5.637   5.805  29.577  0.00  0.00    +0.000 C 
BRANCH  22  23
ATOM     23  CD  GLU A   2      -5.103   4.878  28.498  0.00  0.00    +0.000 C 
ATOM     24  OE1 GLU A   2      -4.044   5.178  27.906  0.00  0.00    +0.000 OA
BRANCH  23  25
ATOM     25  OE2 GLU A   2      -5.754   3.841  28.242  0.00  0.00    +0.000 OA
ATOM     26  HE2 GLU A   2      -6.529   3.803  28.807  0.00  0.00    +0.000 HD
ENDBRANCH  23  25
ENDBRANCH  22  23
ENDBRANCH  21  22
ENDBRANCH   6  21
ENDBRANCH   2   6
ENDBRANCH   1   4
BRANCH   1  27
ATOM     27  C   GLU A   3      -4.145  10.486  34.714  0.00  0.00    +0.000 C 
ATOM     28  O   GLU A   3      -5.094   9.887  35.228  0.00  0.00    +0.000 OA
ATOM     29  N   VAL A   4      -3.142  10.994  35.419  0.00  0.00    +0.000 N 
ATOM     30  H   VAL A   4      -2.378  11.472  34.942  0.00  0.00    +0.000 HD
BRANCH  29  31
ATOM     31  CA  VAL A   4      -3.126  10.872  36.876  0.00  0.00    +0.000 C 
BRANCH  31  32
ATOM     32  C   VAL A   4      -3.938  11.981  37.529  0.00  0.00    +0.000 C 
ATOM     33  O   VAL A   4      -4.087  13.081  36.986  0.00  0.00    +0.000 OA
ATOM     34  N   ASP A   5      -4.452  11.687  38.723  0.00  0.00    +0.000 N 
ATOM     35  H   ASP A   5      -4.277  10.761  39.114  0.00  0.00    +0.000 HD
BRANCH  34  36
ATOM     36  CA  ASP A   5      -5.257  12.633  39.499  0.00  0.00    +0.000 C 
BRANCH  36  37
ATOM     37  C   ASP A   5      -4.466  13.165  40.682  0.00  0.00    +0.000 C 
ATOM     38  OXT ASP A   5      -3.386  12.659  40.979  0.00  0.00    +0.000 OA
BRANCH  37  39
ATOM     39  O   ASP A   5      -4.897  14.081  41.392  0.00  0.00    +0.000 OA
ATOM     40  H   ASP A   5      -5.742  14.381  41.048  0.00  0.00    +0.000 HD
ENDBRANCH  37  39
ENDBRANCH  36  37
BRANCH  36  41
ATOM     41  CB  ASP A   5      -6.513  11.946  40.036  0.00  0.00    +0.000 C 
BRANCH  41  42
ATOM     42  CG  ASP A   5      -7.473  11.536  38.942  0.00  0.00    +0.000 C 
ATOM     43  OD2 ASP A   5      -7.875  10.354  38.936  0.00  0.00    +0.000 OA
BRANCH  42  44
ATOM     44  OD1 ASP A   5      -7.834  12.396  38.110  0.00  0.00    +0.000 OA
ATOM     45  HD1 ASP A   5      -7.401  13.230  38.305  0.00  0.00    +0.000 HD
ENDBRANCH  42  44
ENDBRANCH  41  42
ENDBRANCH  36  41
ENDBRANCH  34  36
ENDBRANCH  31  32
BRANCH  31  46
ATOM     46  CB  VAL A   4      -1.685  10.843  37.407  0.00  0.00    +0.000 C 
ATOM     47  CG1 VAL A   4      -1.031   9.547  37.003  0.00  0.00    +0.000 C 
ATOM     48  CG2 VAL A   4      -0.901  12.057  36.881  0.00  0.00    +0.000 C 
ENDBRANCH  31  46
ENDBRANCH  29  31
ENDBRANCH   1  27
BRANCH   1  49
ATOM     49  CB  GLU A   3      -4.564  12.038  32.789  0.00  0.00    +0.000 C 
BRANCH  49  50
ATOM     50  CG  GLU A   3      -4.568  12.295  31.275  0.00  0.00    +0.000 C 
BRANCH  50  51
ATOM     51  CD  GLU A   3      -3.176  12.362  30.648  0.00  0.00    +0.000 C 
ATOM     52  OE1 GLU A   3      -2.164  12.379  31.385  0.00  0.00    +0.000 OA
BRANCH  51  53
ATOM     53  OE2 GLU A   3      -3.095  12.403  29.398  0.00  0.00    +0.000 OA
ATOM     54  HE2 GLU A   3      -3.977  12.380  29.020  0.00  0.00    +0.000 HD
ENDBRANCH  51  53
ENDBRANCH  50  51
ENDBRANCH  49  50
ENDBRANCH   1  49
TORSDOF 25
