REMARK  Name = 6nri_ligand
REMARK  4 active torsions:
REMARK  status: ('A' for Active; 'I' for Inactive)
REMARK    1  A    between atoms: C_2  and  C_15
REMARK    2  A    between atoms: C_8  and  C_9
REMARK    3  A    between atoms: C_20  and  C_21
REMARK    4  A    between atoms: C_27  and  C_28
REMARK                            x       y       z     vdW  Elec       q    Type
REMARK                         _______ _______ _______ _____ _____    ______ ____
ROOT
ATOM      1  C   UNL     1      23.380  -9.565   7.511  0.00  0.00    +0.000 A 
ATOM      2  C   UNL     1      24.494  -9.519   6.677  0.00  0.00    +0.000 A 
ATOM      3  C   UNL     1      25.605  -8.774   7.023  0.00  0.00    +0.000 A 
ATOM      4  C   UNL     1      23.415  -8.851   8.706  0.00  0.00    +0.000 A 
ATOM      5  C   UNL     1      24.521  -8.088   9.041  0.00  0.00    +0.000 A 
ATOM      6  C   UNL     1      25.636  -8.021   8.198  0.00  0.00    +0.000 A 
ENDROOT
BRANCH   1   8
ATOM      7  O   UNL     1      21.165  -9.711   6.774  0.00  0.00    +0.000 OA
ATOM      8  C   UNL     1      22.174 -10.325   7.060  0.00  0.00    +0.000 C 
ATOM      9  N   UNL     1      22.282 -11.654   6.852  0.00  0.00    +0.000 N 
ATOM     10  C   UNL     1      23.354 -12.469   7.421  0.00  0.00    +0.000 C 
ATOM     11  C   UNL     1      22.569 -13.093   8.539  0.00  0.00    +0.000 A 
ATOM     12  N   UNL     1      22.934 -13.284   9.783  0.00  0.00    +0.000 NA
ATOM     13  N   UNL     1      21.853 -13.873  10.439  0.00  0.00    +0.000 NA
ATOM     14  C   UNL     1      20.888 -14.013   9.556  0.00  0.00    +0.000 A 
ATOM     15  N   UNL     1      21.282 -13.526   8.331  0.00  0.00    +0.000 N 
ATOM     16  C   UNL     1      20.558 -13.418   7.046  0.00  0.00    +0.000 C 
ATOM     17  C   UNL     1      21.282 -12.442   6.116  0.00  0.00    +0.000 C 
BRANCH  14  18
ATOM     18  C   UNL     1      19.547 -14.633   9.809  0.00  0.00    +0.000 C 
ATOM     19  C   UNL     1      19.063 -15.745   8.916  0.00  0.00    +0.000 C 
ATOM     20  C   UNL     1      19.423 -16.044  10.319  0.00  0.00    +0.000 C 
ENDBRANCH  14  18
ENDBRANCH   1   8
BRANCH   6  21
ATOM     21  C   UNL     1      26.836  -7.216   8.387  0.00  0.00    +0.000 C 
ATOM     22  C   UNL     1      27.169  -6.320   9.319  0.00  0.00    +0.000 C 
ATOM     23  C   UNL     1      28.286  -5.378   9.248  0.00  0.00    +0.000 C 
ATOM     24  O   UNL     1      29.125  -5.302   8.351  0.00  0.00    +0.000 OA
ATOM     25  O   UNL     1      26.437  -6.070  10.464  0.00  0.00    +0.000 OA
ATOM     26  C   UNL     1      27.019  -5.017  11.144  0.00  0.00    +0.000 A 
ATOM     27  C   UNL     1      26.663  -4.474  12.383  0.00  0.00    +0.000 A 
ATOM     28  C   UNL     1      28.136  -4.549  10.463  0.00  0.00    +0.000 A 
ATOM     29  C   UNL     1      28.923  -3.546  11.020  0.00  0.00    +0.000 A 
ATOM     30  C   UNL     1      28.578  -3.011  12.250  0.00  0.00    +0.000 A 
ATOM     31  C   UNL     1      27.457  -3.460  12.921  0.00  0.00    +0.000 A 
BRANCH  27  32
ATOM     32  C   UNL     1      25.504  -4.928  13.207  0.00  0.00    +0.000 C 
ATOM     33  O   UNL     1      25.167  -4.269  14.205  0.00  0.00    +0.000 OA
ATOM     34  N   UNL     1      24.870  -6.042  12.831  0.00  0.00    +0.000 N 
ATOM     35  H   UNL     1      24.075  -6.383  13.371  0.00  0.00    +0.000 HD
ATOM     36  H   UNL     1      25.181  -6.552  12.004  0.00  0.00    +0.000 HD
ENDBRANCH  27  32
ENDBRANCH   6  21
TORSDOF 4
