REMARK  Name = 6rnu_ligand
REMARK  4 active torsions:
REMARK  status: ('A' for Active; 'I' for Inactive)
REMARK    1  A    between atoms: C_1  and  C_14
REMARK    2  A    between atoms: C_8  and  S_17
REMARK    3  A    between atoms: C_12  and  C_13
REMARK    4  A    between atoms: C_14  and  O_15
REMARK                            x       y       z     vdW  Elec       q    Type
REMARK                         _______ _______ _______ _____ _____    ______ ____
ROOT
ATOM      1  C   UNL     1      35.618  12.830 -15.782  0.00  0.00    +0.000 A 
ATOM      2  C   UNL     1      35.189  12.057 -16.850  0.00  0.00    +0.000 A 
ATOM      3  C   UNL     1      33.853  12.026 -17.204  0.00  0.00    +0.000 A 
ATOM      4  C   UNL     1      33.333  13.522 -15.410  0.00  0.00    +0.000 A 
ATOM      5  C   UNL     1      34.677  13.550 -15.052  0.00  0.00    +0.000 A 
ATOM      6  C   UNL     1      32.879  12.731 -16.486  0.00  0.00    +0.000 A 
ENDROOT
BRANCH   6  13
ATOM      7  C   UNL     1      29.393  11.334 -16.986  0.00  0.00    +0.000 A 
ATOM      8  C   UNL     1      28.855  12.324 -17.772  0.00  0.00    +0.000 A 
ATOM      9  C   UNL     1      29.560  13.421 -18.174  0.00  0.00    +0.000 A 
ATOM     10  C   UNL     1      30.869  13.548 -17.750  0.00  0.00    +0.000 A 
ATOM     11  F   UNL     1      27.571  12.201 -18.177  0.00  0.00    +0.000 F 
ATOM     12  C   UNL     1      30.713  11.459 -16.593  0.00  0.00    +0.000 A 
ATOM     13  C   UNL     1      31.464  12.586 -16.934  0.00  0.00    +0.000 A 
ENDBRANCH   6  13
BRANCH   4  14
ATOM     14  S   UNL     1      32.256  14.504 -14.381  0.00  0.00    +0.000 S 
ATOM     15  O   UNL     1      31.042  14.797 -15.065  0.00  0.00    +0.000 OA
ATOM     16  O   UNL     1      33.008  15.590 -13.852  0.00  0.00    +0.000 OA
ATOM     17  H   UNL     1      31.819  13.849 -13.309  0.00  0.00    +0.000 HD
ENDBRANCH   4  14
BRANCH   1  18
ATOM     18  C   UNL     1      37.063  12.885 -15.415  0.00  0.00    +0.000 C 
ATOM     19  O   UNL     1      37.922  12.259 -16.036  0.00  0.00    +0.000 OA
BRANCH  18  20
ATOM     20  O   UNL     1      37.322  13.627 -14.377  0.00  0.00    +0.000 OA
ATOM     21  H   UNL     1      36.507  14.019 -14.054  0.00  0.00    +0.000 HD
ENDBRANCH  18  20
ENDBRANCH   1  18
TORSDOF 4
