REMARK  Name = 6qqw_ligand
REMARK  3 active torsions:
REMARK  status: ('A' for Active; 'I' for Inactive)
REMARK    1  A    between atoms: C_2  and  C_19
REMARK    2  A    between atoms: C_11  and  C_13
REMARK    3  A    between atoms: N_18  and  C_19
REMARK                            x       y       z     vdW  Elec       q    Type
REMARK                         _______ _______ _______ _____ _____    ______ ____
ROOT
ATOM      1  C   UNL     1     -24.389  20.263 -11.185  0.00  0.00    +0.000 A 
ATOM      2  C   UNL     1     -24.991  22.415 -10.646  0.00  0.00    +0.000 A 
ATOM      3  C   UNL     1     -25.479  21.108 -10.785  0.00  0.00    +0.000 A 
ATOM      4  C   UNL     1     -21.908  19.163 -11.959  0.00  0.00    +0.000 A 
ATOM      5  C   UNL     1     -23.019  18.325 -11.868  0.00  0.00    +0.000 A 
ATOM      6  C   UNL     1     -24.270  18.871 -11.480  0.00  0.00    +0.000 A 
ATOM      7  C   UNL     1     -23.300  21.084 -11.273  0.00  0.00    +0.000 A 
ATOM      8  C   UNL     1     -22.022  20.519 -11.664  0.00  0.00    +0.000 A 
ATOM      9  N   UNL     1     -23.710  22.393 -10.939  0.00  0.00    +0.000 N 
ENDROOT
BRANCH   4  14
ATOM     10  N   UNL     1     -17.888  16.221 -12.652  0.00  0.00    +0.000 N 
ATOM     11  C   UNL     1     -18.761  17.342 -12.551  0.00  0.00    +0.000 C 
ATOM     12  N   UNL     1     -18.404  18.610 -12.727  0.00  0.00    +0.000 NA
ATOM     13  N   UNL     1     -19.479  19.369 -12.546  0.00  0.00    +0.000 NA
ATOM     14  C   UNL     1     -20.544  18.617 -12.287  0.00  0.00    +0.000 C 
ATOM     15  C   UNL     1     -20.141  17.336 -12.240  0.00  0.00    +0.000 C 
ATOM     16  H   UNL     1     -16.903  16.360 -12.876  0.00  0.00    +0.000 HD
ATOM     17  H   UNL     1     -18.248  15.279 -12.501  0.00  0.00    +0.000 HD
ENDBRANCH   4  14
BRANCH   9  18
ATOM     18  C   UNL     1     -22.870  23.558 -10.896  0.00  0.00    +0.000 C 
BRANCH  18  19
ATOM     19  C   UNL     1     -22.142  23.643  -9.534  0.00  0.00    +0.000 A 
ATOM     20  C   UNL     1     -21.963  22.983  -7.184  0.00  0.00    +0.000 A 
ATOM     21  C   UNL     1     -20.999  24.464  -9.396  0.00  0.00    +0.000 A 
ATOM     22  C   UNL     1     -22.628  22.908  -8.423  0.00  0.00    +0.000 A 
ATOM     23  C   UNL     1     -20.815  23.800  -7.047  0.00  0.00    +0.000 A 
ATOM     24  C   UNL     1     -20.335  24.544  -8.151  0.00  0.00    +0.000 A 
ENDBRANCH  18  19
ENDBRANCH   9  18
TORSDOF 3
