REMARK  Name = 6k2n_ligand
REMARK  20 active torsions:
REMARK  status: ('A' for Active; 'I' for Inactive)
REMARK    1  A    between atoms: C_1  and  O_26
REMARK    2  A    between atoms: C_2  and  N_9
REMARK    3  A    between atoms: C_3  and  O_10
REMARK    4  A    between atoms: C_4  and  O_11
REMARK    5  A    between atoms: C_5  and  C_6
REMARK    6  A    between atoms: C_6  and  O_13
REMARK    7  A    between atoms: C_7  and  C_8
REMARK    8  A    between atoms: C_16  and  O_17
REMARK    9  A    between atoms: C_18  and  N_19
REMARK   10  A    between atoms: C_20  and  O_21
REMARK   11  A    between atoms: O_21  and  C_30
REMARK   12  A    between atoms: C_22  and  O_23
REMARK   13  A    between atoms: C_24  and  C_25
REMARK   14  A    between atoms: C_25  and  O_26
REMARK   15  A    between atoms: C_27  and  C_29
REMARK   16  A    between atoms: C_31  and  O_36
REMARK   17  A    between atoms: C_32  and  O_37
REMARK   18  A    between atoms: C_33  and  O_38
REMARK   19  A    between atoms: C_34  and  C_35
REMARK   20  A    between atoms: C_35  and  O_40
REMARK                            x       y       z     vdW  Elec       q    Type
REMARK                         _______ _______ _______ _____ _____    ______ ____
ROOT
ATOM      1  O   UNL     1      -5.524  12.753  11.143  0.00  0.00    +0.000 OA
ATOM      2  C   UNL     1      -6.737  12.041  11.378  0.00  0.00    +0.000 C 
ATOM      3  C   UNL     1      -7.582  12.043  10.109  0.00  0.00    +0.000 C 
ATOM      4  C   UNL     1      -6.803  11.470   8.932  0.00  0.00    +0.000 C 
ATOM      5  C   UNL     1      -5.426  12.114   8.822  0.00  0.00    +0.000 C 
ATOM      6  C   UNL     1      -4.710  12.105  10.167  0.00  0.00    +0.000 C 
ENDROOT
BRANCH   3   7
ATOM      7  N   UNL     1      -8.796  11.279  10.320  0.00  0.00    +0.000 N 
ATOM      8  C   UNL     1      -9.985  11.870  10.397  0.00  0.00    +0.000 C 
ATOM      9  O   UNL     1     -10.126  13.069  10.227  0.00  0.00    +0.000 OA
ATOM     10  C   UNL     1     -11.141  10.965  10.706  0.00  0.00    +0.000 C 
ATOM     11  H   UNL     1      -8.737  10.265  10.412  0.00  0.00    +0.000 HD
ENDBRANCH   3   7
BRANCH   2  12
ATOM     12  O   UNL     1      -6.434  10.691  11.747  0.00  0.00    +0.000 OA
ATOM     13  H   UNL     1      -7.251  10.213  11.905  0.00  0.00    +0.000 HD
ENDBRANCH   2  12
BRANCH   5  14
ATOM     14  O   UNL     1      -5.566  13.464   8.364  0.00  0.00    +0.000 OA
ATOM     15  H   UNL     1      -4.698  13.869   8.295  0.00  0.00    +0.000 HD
ENDBRANCH   5  14
BRANCH   4  16
ATOM     16  O   UNL     1      -7.533  11.696   7.721  0.00  0.00    +0.000 OA
BRANCH  16  17
ATOM     17  C   UNL     1      -7.889  10.336   7.406  0.00  0.00    +0.000 C 
ATOM     18  C   UNL     1      -9.129  10.484   6.498  0.00  0.00    +0.000 C 
ATOM     19  C   UNL     1      -9.510   9.215   5.734  0.00  0.00    +0.000 C 
ATOM     20  C   UNL     1      -8.295   8.622   5.036  0.00  0.00    +0.000 C 
ATOM     21  C   UNL     1      -7.188   8.407   6.061  0.00  0.00    +0.000 C 
ATOM     22  O   UNL     1      -6.834   9.626   6.769  0.00  0.00    +0.000 OA
BRANCH  20  23
ATOM     23  O   UNL     1      -7.851   9.481   3.990  0.00  0.00    +0.000 OA
ATOM     24  H   UNL     1      -7.085   9.092   3.561  0.00  0.00    +0.000 HD
ENDBRANCH  20  23
BRANCH  19  25
ATOM     25  O   UNL     1     -10.463   9.517   4.713  0.00  0.00    +0.000 OA
ATOM     26  H   UNL     1     -10.692   8.712   4.243  0.00  0.00    +0.000 HD
ENDBRANCH  19  25
BRANCH  18  27
ATOM     27  O   UNL     1     -10.277  10.884   7.244  0.00  0.00    +0.000 OA
ATOM     28  H   UNL     1     -11.029  10.967   6.653  0.00  0.00    +0.000 HD
ENDBRANCH  18  27
BRANCH  21  29
ATOM     29  C   UNL     1      -5.879   7.887   5.447  0.00  0.00    +0.000 C 
BRANCH  29  30
ATOM     30  O   UNL     1      -6.089   7.365   4.136  0.00  0.00    +0.000 OA
ATOM     31  H   UNL     1      -5.255   7.049   3.781  0.00  0.00    +0.000 HD
ENDBRANCH  29  30
ENDBRANCH  21  29
ENDBRANCH  16  17
ENDBRANCH   4  16
BRANCH   6  32
ATOM     32  C   UNL     1      -3.365  12.816  10.074  0.00  0.00    +0.000 C 
BRANCH  32  33
ATOM     33  O   UNL     1      -2.373  12.052  10.768  0.00  0.00    +0.000 OA
BRANCH  33  34
ATOM     34  C   UNL     1      -1.242  12.959  10.646  0.00  0.00    +0.000 C 
ATOM     35  C   UNL     1      -0.303  12.786  11.853  0.00  0.00    +0.000 C 
ATOM     36  C   UNL     1       0.923  13.696  11.716  0.00  0.00    +0.000 C 
ATOM     37  C   UNL     1       1.583  13.517  10.356  0.00  0.00    +0.000 C 
ATOM     38  C   UNL     1       0.560  13.692   9.241  0.00  0.00    +0.000 C 
ATOM     39  O   UNL     1      -0.498  12.743   9.417  0.00  0.00    +0.000 OA
BRANCH  35  42
ATOM     40  C   UNL     1      -1.388  12.100  13.942  0.00  0.00    +0.000 C 
ATOM     41  C   UNL     1      -2.105  12.559  15.176  0.00  0.00    +0.000 C 
ATOM     42  N   UNL     1      -1.004  13.061  13.096  0.00  0.00    +0.000 N 
ATOM     43  O   UNL     1      -1.164  10.913  13.722  0.00  0.00    +0.000 OA
ATOM     44  H   UNL     1      -1.212  14.031  13.334  0.00  0.00    +0.000 HD
ENDBRANCH  35  42
BRANCH  36  45
ATOM     45  O   UNL     1       1.862  13.371  12.734  0.00  0.00    +0.000 OA
ATOM     46  H   UNL     1       1.451  13.482  13.594  0.00  0.00    +0.000 HD
ENDBRANCH  36  45
BRANCH  37  47
ATOM     47  O   UNL     1       2.635  14.460  10.176  0.00  0.00    +0.000 OA
ATOM     48  H   UNL     1       3.282  14.353  10.877  0.00  0.00    +0.000 HD
ENDBRANCH  37  47
BRANCH  38  49
ATOM     49  C   UNL     1       1.147  13.446   7.873  0.00  0.00    +0.000 C 
BRANCH  49  50
ATOM     50  O   UNL     1       1.729  12.152   7.802  0.00  0.00    +0.000 OA
ATOM     51  H   UNL     1       2.096  12.015   6.926  0.00  0.00    +0.000 HD
ENDBRANCH  49  50
ENDBRANCH  38  49
ENDBRANCH  33  34
ENDBRANCH  32  33
ENDBRANCH   6  32
TORSDOF 18
