REMARK  Name = 6g27_ligand
REMARK  3 active torsions:
REMARK  status: ('A' for Active; 'I' for Inactive)
REMARK    1  A    between atoms: C_2  and  C_15
REMARK    2  A    between atoms: C_3  and  C_6
REMARK    3  A    between atoms: C_5  and  N_10
REMARK                            x       y       z     vdW  Elec       q    Type
REMARK                         _______ _______ _______ _____ _____    ______ ____
ROOT
ATOM      1  N   UNL     1      -4.300   7.612 -20.691  0.00  0.00    +0.000 NA
ATOM      2  C   UNL     1      -3.699   7.795 -19.534  0.00  0.00    +0.000 A 
ATOM      3  C   UNL     1      -3.886   6.875 -18.466  0.00  0.00    +0.000 A 
ATOM      4  C   UNL     1      -4.697   5.788 -18.696  0.00  0.00    +0.000 A 
ATOM      5  C   UNL     1      -3.238   7.081 -17.119  0.00  0.00    +0.000 C 
ATOM      6  N   UNL     1      -5.064   6.590 -20.934  0.00  0.00    +0.000 N 
ATOM      7  O   UNL     1      -6.019   4.682 -20.202  0.00  0.00    +0.000 OA
ATOM      8  C   UNL     1      -5.293   5.651 -19.980  0.00  0.00    +0.000 A 
ENDROOT
BRANCH   6   9
ATOM      9  C   UNL     1      -5.684   6.467 -22.277  0.00  0.00    +0.000 C 
ATOM     10  C   UNL     1      -7.645   7.251 -23.706  0.00  0.00    +0.000 C 
ATOM     11  C   UNL     1      -6.999   7.269 -22.309  0.00  0.00    +0.000 C 
ATOM     12  N   UNL     1      -6.686   7.712 -24.726  0.00  0.00    +0.000 N 
ATOM     13  C   UNL     1      -4.739   6.920 -23.408  0.00  0.00    +0.000 C 
ATOM     14  C   UNL     1      -5.472   6.877 -24.761  0.00  0.00    +0.000 C 
ATOM     15  H   UNL     1      -6.410   8.666 -24.495  0.00  0.00    +0.000 HD
ATOM     16  H   UNL     1      -7.139   7.654 -25.638  0.00  0.00    +0.000 HD
ENDBRANCH   6   9
BRANCH   2  21
ATOM     17  C   UNL     1      -1.457   8.876 -19.272  0.00  0.00    +0.000 A 
ATOM     18  C   UNL     1      -1.264  11.269 -19.118  0.00  0.00    +0.000 A 
ATOM     19  C   UNL     1      -0.676  10.016 -19.144  0.00  0.00    +0.000 A 
ATOM     20  C   UNL     1      -3.432  10.255 -19.318  0.00  0.00    +0.000 A 
ATOM     21  C   UNL     1      -2.847   8.996 -19.370  0.00  0.00    +0.000 A 
ATOM     22  C   UNL     1      -2.639  11.382 -19.199  0.00  0.00    +0.000 A 
ENDBRANCH   2  21
TORSDOF 2
