REMARK  Name = 6qlu_ligand
REMARK  10 active torsions:
REMARK  status: ('A' for Active; 'I' for Inactive)
REMARK    1  A    between atoms: C_1  and  C_19
REMARK    2  A    between atoms: C_4  and  C_22
REMARK    3  A    between atoms: C_5  and  O_30
REMARK    4  A    between atoms: C_6  and  C_7
REMARK    5  A    between atoms: C_12  and  S_31
REMARK    6  A    between atoms: C_13  and  S_31
REMARK    7  A    between atoms: C_14  and  C_15
REMARK    8  A    between atoms: C_15  and  O_28
REMARK    9  A    between atoms: C_16  and  O_29
REMARK   10  A    between atoms: C_17  and  N_24
REMARK                            x       y       z     vdW  Elec       q    Type
REMARK                         _______ _______ _______ _____ _____    ______ ____
ROOT
ATOM      1  C   UNL     1     -18.528   9.191  -1.359  0.00  0.00    +0.000 C 
ATOM      2  C   UNL     1     -19.970   8.823  -1.680  0.00  0.00    +0.000 C 
ATOM      3  C   UNL     1     -19.883   6.595  -0.916  0.00  0.00    +0.000 C 
ATOM      4  C   UNL     1     -18.384   6.731  -0.602  0.00  0.00    +0.000 C 
ATOM      5  C   UNL     1     -17.792   7.856  -1.533  0.00  0.00    +0.000 C 
ATOM      6  O   UNL     1     -20.481   7.888  -0.752  0.00  0.00    +0.000 OA
ENDROOT
BRANCH   5   9
ATOM      7  C   UNL     1     -15.777   8.394  -0.138  0.00  0.00    +0.000 A 
ATOM      8  C   UNL     1     -14.422   8.348  -0.422  0.00  0.00    +0.000 A 
ATOM      9  N   UNL     1     -16.408   7.988  -1.291  0.00  0.00    +0.000 N 
ATOM     10  N   UNL     1     -14.352   7.911  -1.739  0.00  0.00    +0.000 NA
ATOM     11  N   UNL     1     -15.494   7.709  -2.229  0.00  0.00    +0.000 NA
BRANCH   8  12
ATOM     12  C   UNL     1     -13.316   8.607   0.424  0.00  0.00    +0.000 A 
ATOM     13  C   UNL     1     -13.448   8.479   1.817  0.00  0.00    +0.000 A 
ATOM     14  C   UNL     1     -12.385   8.676   2.674  0.00  0.00    +0.000 A 
ATOM     15  C   UNL     1     -10.935   9.107   0.754  0.00  0.00    +0.000 A 
ATOM     16  C   UNL     1     -11.153   8.991   2.110  0.00  0.00    +0.000 A 
ATOM     17  C   UNL     1     -12.038   8.899  -0.064  0.00  0.00    +0.000 A 
ATOM     18  C   UNL     1      -9.620   9.450   0.271  0.00  0.00    +0.000 C 
ATOM     19  F   UNL     1     -10.100   9.177   2.975  0.00  0.00    +0.000 F 
ENDBRANCH   8  12
ENDBRANCH   5   9
BRANCH   4  20
ATOM     20  O   UNL     1     -18.198   7.115   0.736  0.00  0.00    +0.000 OA
ATOM     21  H   UNL     1     -17.259   7.196   0.917  0.00  0.00    +0.000 HD
ENDBRANCH   4  20
BRANCH   1  22
ATOM     22  O   UNL     1     -18.039  10.004  -2.418  0.00  0.00    +0.000 OA
ATOM     23  H   UNL     1     -17.129  10.249  -2.237  0.00  0.00    +0.000 HD
ENDBRANCH   1  22
BRANCH   3  24
ATOM     24  C   UNL     1     -20.587   5.646   0.085  0.00  0.00    +0.000 C 
BRANCH  24  25
ATOM     25  O   UNL     1     -21.915   5.495  -0.354  0.00  0.00    +0.000 OA
ATOM     26  H   UNL     1     -22.384   4.910   0.245  0.00  0.00    +0.000 HD
ENDBRANCH  24  25
ENDBRANCH   3  24
BRANCH   2  27
ATOM     27  S   UNL     1     -21.037  10.285  -1.671  0.00  0.00    +0.000 S 
BRANCH  27  34
ATOM     28  C   UNL     1     -25.573   9.020  -5.743  0.00  0.00    +0.000 C 
ATOM     29  C   UNL     1     -24.429   9.322  -4.728  0.00  0.00    +0.000 A 
ATOM     30  C   UNL     1     -24.072  10.638  -4.390  0.00  0.00    +0.000 A 
ATOM     31  C   UNL     1     -23.049  10.940  -3.476  0.00  0.00    +0.000 A 
ATOM     32  C   UNL     1     -23.683   8.330  -4.078  0.00  0.00    +0.000 A 
ATOM     33  C   UNL     1     -22.656   8.632  -3.156  0.00  0.00    +0.000 A 
ATOM     34  C   UNL     1     -22.334   9.951  -2.843  0.00  0.00    +0.000 A 
ENDBRANCH  27  34
ENDBRANCH   2  27
TORSDOF 8
