REMARK  Name = 6ffe_ligand
REMARK  6 active torsions:
REMARK  status: ('A' for Active; 'I' for Inactive)
REMARK    1  A    between atoms: C_2  and  C_13
REMARK    2  A    between atoms: C_6  and  C_15
REMARK    3  A    between atoms: C_7  and  C_8
REMARK    4  A    between atoms: C_11  and  C_24
REMARK    5  A    between atoms: N_12  and  C_13
REMARK    6  A    between atoms: C_15  and  O_16
REMARK                            x       y       z     vdW  Elec       q    Type
REMARK                         _______ _______ _______ _____ _____    ______ ____
ROOT
ATOM      1  C   UNL     1      41.877  17.048   9.384  0.00  0.00    +0.000 C 
ATOM      2  C   UNL     1      39.183  15.361   5.816  0.00  0.00    +0.000 C 
ATOM      3  C   UNL     1      40.505  15.464   6.514  0.00  0.00    +0.000 C 
ATOM      4  O   UNL     1      41.310  14.547   6.461  0.00  0.00    +0.000 OA
ATOM      5  N   UNL     1      40.792  16.610   7.229  0.00  0.00    +0.000 N 
ATOM      6  C   UNL     1      42.100  16.677   7.925  0.00  0.00    +0.000 C 
ATOM      7  N   UNL     1      40.704  17.876   9.690  0.00  0.00    +0.000 N 
ATOM      8  C   UNL     1      39.925  18.402   8.597  0.00  0.00    +0.000 A 
ATOM      9  C   UNL     1      39.117  19.524   8.777  0.00  0.00    +0.000 A 
ATOM     10  C   UNL     1      38.370  20.006   7.717  0.00  0.00    +0.000 A 
ATOM     11  C   UNL     1      38.411  19.379   6.490  0.00  0.00    +0.000 A 
ATOM     12  C   UNL     1      39.204  18.261   6.297  0.00  0.00    +0.000 A 
ATOM     13  C   UNL     1      39.948  17.750   7.356  0.00  0.00    +0.000 A 
ENDROOT
BRANCH   6  14
ATOM     14  C   UNL     1      43.102  17.561   7.192  0.00  0.00    +0.000 C 
ATOM     15  C   UNL     1      43.998  16.933   6.171  0.00  0.00    +0.000 C 
ATOM     16  C   UNL     1      44.558  17.355   7.482  0.00  0.00    +0.000 C 
ENDBRANCH   6  14
BRANCH   7  17
ATOM     17  C   UNL     1      40.895  18.695  10.888  0.00  0.00    +0.000 C 
BRANCH  17  18
ATOM     18  C   UNL     1      40.110  18.185  12.073  0.00  0.00    +0.000 A 
ATOM     19  C   UNL     1      38.334  16.795  12.935  0.00  0.00    +0.000 A 
ATOM     20  C   UNL     1      38.629  17.196  14.219  0.00  0.00    +0.000 A 
ATOM     21  C   UNL     1      39.659  18.090  14.449  0.00  0.00    +0.000 A 
ATOM     22  C   UNL     1      40.408  18.591  13.383  0.00  0.00    +0.000 A 
ATOM     23  C   UNL     1      39.067  17.285  11.870  0.00  0.00    +0.000 A 
BRANCH  22  24
ATOM     24  C   UNL     1      41.509  19.551  13.682  0.00  0.00    +0.000 C 
ATOM     25  O   UNL     1      41.532  20.680  13.208  0.00  0.00    +0.000 OA
BRANCH  24  26
ATOM     26  O   UNL     1      42.433  19.089  14.471  0.00  0.00    +0.000 OA
ATOM     27  H   UNL     1      42.216  18.188  14.723  0.00  0.00    +0.000 HD
ENDBRANCH  24  26
ENDBRANCH  22  24
ENDBRANCH  17  18
ENDBRANCH   7  17
TORSDOF 5
