REMARK  Name = 6j06_ligand
REMARK  13 active torsions:
REMARK  status: ('A' for Active; 'I' for Inactive)
REMARK    1  A    between atoms: O_1  and  C_2
REMARK    2  A    between atoms: C_2  and  C_3
REMARK    3  A    between atoms: C_3  and  C_5
REMARK    4  A    between atoms: C_4  and  C_13
REMARK    5  A    between atoms: C_5  and  C_6
REMARK    6  A    between atoms: C_9  and  C_12
REMARK    7  A    between atoms: C_13  and  O_14
REMARK    8  A    between atoms: O_14  and  P_15
REMARK    9  A    between atoms: P_15  and  O_16
REMARK   10  A    between atoms: P_15  and  O_18
REMARK   11  A    between atoms: O_16  and  P_19
REMARK   12  A    between atoms: P_19  and  O_20
REMARK   13  A    between atoms: P_19  and  O_22
REMARK                            x       y       z     vdW  Elec       q    Type
REMARK                         _______ _______ _______ _____ _____    ______ ____
ROOT
ATOM      1  C   UNL     1      29.486 230.745  30.424  0.00  0.00    +0.000 C 
ATOM      2  C   UNL     1      29.857 229.481  30.318  0.00  0.00    +0.000 C 
ENDROOT
BRANCH   1   3
ATOM      3  C   UNL     1      30.307 231.839  29.759  0.00  0.00    +0.000 C 
BRANCH   3   4
ATOM      4  O   UNL     1      31.071 231.376  28.700  0.00  0.00    +0.000 OA
ATOM      5  H   UNL     1      31.566 232.106  28.320  0.00  0.00    +0.000 HD
ENDBRANCH   3   4
ENDBRANCH   1   3
BRANCH   1   6
ATOM      6  C   UNL     1      28.295 231.195  31.270  0.00  0.00    +0.000 C 
BRANCH   6   7
ATOM      7  C   UNL     1      28.893 231.757  32.539  0.00  0.00    +0.000 A 
ATOM      8  C   UNL     1      28.918 230.997  33.695  0.00  0.00    +0.000 A 
ATOM      9  C   UNL     1      29.553 231.491  34.832  0.00  0.00    +0.000 A 
ATOM     10  C   UNL     1      30.088 232.777  34.812  0.00  0.00    +0.000 A 
ATOM     11  C   UNL     1      30.004 233.557  33.672  0.00  0.00    +0.000 A 
ATOM     12  C   UNL     1      29.408 233.040  32.529  0.00  0.00    +0.000 A 
ATOM     13  C   UNL     1      30.727 233.360  36.075  0.00  0.00    +0.000 C 
ENDBRANCH   6   7
ENDBRANCH   1   6
BRANCH   2  14
ATOM     14  C   UNL     1      29.164 228.310  31.034  0.00  0.00    +0.000 C 
BRANCH  14  15
ATOM     15  O   UNL     1      28.390 227.552  30.160  0.00  0.00    +0.000 OA
BRANCH  15  16
ATOM     16  P   UNL     1      27.578 226.246  30.759  0.00  0.00    +0.000 P 
ATOM     17  O   UNL     1      26.523 226.657  31.737  0.00  0.00    +0.000 OA
BRANCH  16  18
ATOM     18  O   UNL     1      27.090 225.296  29.682  0.00  0.00    +0.000 OA
ATOM     19  H   UNL     1      27.818 225.078  29.095  0.00  0.00    +0.000 HD
ENDBRANCH  16  18
BRANCH  16  20
ATOM     20  O   UNL     1      28.694 225.449  31.611  0.00  0.00    +0.000 OA
BRANCH  20  21
ATOM     21  P   UNL     1      29.904 224.622  30.894  0.00  0.00    +0.000 P 
ATOM     22  O   UNL     1      31.091 224.867  31.705  0.00  0.00    +0.000 OA
BRANCH  21  23
ATOM     23  O   UNL     1      29.506 223.223  31.023  0.00  0.00    +0.000 OA
ATOM     24  H   UNL     1      28.725 223.063  30.489  0.00  0.00    +0.000 HD
ENDBRANCH  21  23
BRANCH  21  25
ATOM     25  O   UNL     1      30.167 224.953  29.316  0.00  0.00    +0.000 OA
ATOM     26  H   UNL     1      29.366 224.780  28.816  0.00  0.00    +0.000 HD
ENDBRANCH  21  25
ENDBRANCH  20  21
ENDBRANCH  16  20
ENDBRANCH  15  16
ENDBRANCH  14  15
ENDBRANCH   2  14
TORSDOF 12
