REMARK  Name = 5zk5_ligand
REMARK  69 active torsions:
REMARK  status: ('A' for Active; 'I' for Inactive)
REMARK    1  A    between atoms: N_1  and  CA_2
REMARK    2  A    between atoms: CA_2  and  C_3
REMARK    3  A    between atoms: CA_2  and  CB_5
REMARK    4  A    between atoms: N_6  and  CA_7
REMARK    5  A    between atoms: CA_7  and  C_8
REMARK    6  A    between atoms: CA_7  and  CB_10
REMARK    7  A    between atoms: CB_10  and  CG_11
REMARK    8  A    between atoms: CG_11  and  CD_12
REMARK    9  A    between atoms: CD_12  and  NE_13
REMARK   10  A    between atoms: N_17  and  CA_18
REMARK   11  A    between atoms: CA_18  and  C_19
REMARK   12  A    between atoms: CA_18  and  CB_21
REMARK   13  A    between atoms: CB_21  and  CG_22
REMARK   14  A    between atoms: CZ_27  and  OH_28
REMARK   15  A    between atoms: N_29  and  C_30
REMARK   16  A    between atoms: C_30  and  C_31
REMARK   17  A    between atoms: C_30  and  C_33
REMARK   18  A    between atoms: C_33  and  O_34
REMARK   19  A    between atoms: N_35  and  C_36
REMARK   20  A    between atoms: C_36  and  C_37
REMARK   21  A    between atoms: C_36  and  C_39
REMARK   22  A    between atoms: C_39  and  C_40
REMARK   23  A    between atoms: C_40  and  C_41
REMARK   24  A    between atoms: C_41  and  N_42
REMARK   25  A    between atoms: N_46  and  C_47
REMARK   26  A    between atoms: C_47  and  C_48
REMARK   27  A    between atoms: C_47  and  C_50
REMARK   28  A    between atoms: C_50  and  C_51
REMARK   29  A    between atoms: C_51  and  C_52
REMARK   30  A    between atoms: C_52  and  O_53
REMARK   31  A    between atoms: N_55  and  C_56
REMARK   32  A    between atoms: C_56  and  C_57
REMARK   33  A    between atoms: C_56  and  C_59
REMARK   34  A    between atoms: C_59  and  C_60
REMARK   35  A    between atoms: C_60  and  C_61
REMARK   36  A    between atoms: N_64  and  C_65
REMARK   37  A    between atoms: C_65  and  C_66
REMARK   38  A    between atoms: C_65  and  C_68
REMARK   39  A    between atoms: C_68  and  C_69
REMARK   40  A    between atoms: C_69  and  C_70
REMARK   41  A    between atoms: C_69  and  C_71
REMARK   42  A    between atoms: N_72  and  C_73
REMARK   43  A    between atoms: C_73  and  C_74
REMARK   44  A    between atoms: C_73  and  C_76
REMARK   45  A    between atoms: C_76  and  C_77
REMARK   46  A    between atoms: C_77  and  C_78
REMARK   47  A    between atoms: C_77  and  C_79
REMARK   48  A    between atoms: C_80  and  C_83
REMARK   49  A    between atoms: N_81  and  C_83
REMARK   50  A    between atoms: C_83  and  C_84
REMARK   51  A    between atoms: C_83  and  C_88
REMARK   52  A    between atoms: C_84  and  C_87
REMARK   53  A    between atoms: C_85  and  C_86
REMARK   54  A    between atoms: C_85  and  C_87
REMARK   55  A    between atoms: N_89  and  CA_90
REMARK   56  A    between atoms: CA_90  and  C_91
REMARK   57  A    between atoms: CA_90  and  CB_93
REMARK   58  A    between atoms: CB_93  and  CG_94
REMARK   59  A    between atoms: N_100  and  CA_101
REMARK   60  A    between atoms: CA_101  and  C_102
REMARK   61  A    between atoms: CA_101  and  CB_104
REMARK   62  A    between atoms: CB_104  and  CG_105
REMARK   63  A    between atoms: CG_105  and  CD_106
REMARK   64  A    between atoms: N_109  and  CA_110
REMARK   65  A    between atoms: CA_110  and  C_111
REMARK   66  A    between atoms: CA_110  and  CB_113
REMARK   67  A    between atoms: CB_113  and  CG_114
REMARK   68  A    between atoms: CG_114  and  CD_115
REMARK   69  A    between atoms: CD_115  and  NE_116
REMARK                            x       y       z     vdW  Elec       q    Type
REMARK                         _______ _______ _______ _____ _____    ______ ____
ROOT
ATOM      1  C   UNK A   4      46.748  83.256  92.370  0.00  0.00    +0.000 C 
ENDROOT
BRANCH   1   2
ATOM      2  C   UNK A   4      46.670  82.815  90.898  0.00  0.00    +0.000 C 
ATOM      3  O   UNK A   4      46.931  83.614  90.000  0.00  0.00    +0.000 OA
ATOM      4  N   UNK A   4      46.314  81.550  90.656  0.00  0.00    +0.000 N 
ATOM      5  H   UNK A   4      46.169  80.913  91.439  0.00  0.00    +0.000 HD
BRANCH   4   6
ATOM      6  C   UNK A   4      46.128  81.059  89.287  0.00  0.00    +0.000 C 
BRANCH   6   7
ATOM      7  C   UNK A   4      44.902  81.718  88.639  0.00  0.00    +0.000 C 
ATOM      8  O   UNK A   4      44.984  82.230  87.517  0.00  0.00    +0.000 OA
ATOM      9  N   UNK A   4      43.788  81.744  89.363  0.00  0.00    +0.000 N 
ATOM     10  H   UNK A   4      43.796  81.344  90.301  0.00  0.00    +0.000 HD
BRANCH   9  11
ATOM     11  C   UNK A   4      42.533  82.339  88.842  0.00  0.00    +0.000 C 
BRANCH  11  12
ATOM     12  C   UNK A   4      42.627  83.847  88.529  0.00  0.00    +0.000 C 
ATOM     13  O   UNK A   4      41.950  84.316  87.640  0.00  0.00    +0.000 OA
ATOM     14  N   UNK A   4      43.493  84.594  89.236  0.00  0.00    +0.000 N 
ATOM     15  H   UNK A   4      44.016  84.097  89.957  0.00  0.00    +0.000 HD
BRANCH  14  16
ATOM     16  C   UNK A   4      43.787  86.018  89.114  0.00  0.00    +0.000 C 
ATOM     17  C   UNK A   4      42.496  86.800  89.413  0.00  0.00    +0.000 C 
BRANCH  16  18
ATOM     18  C   UNK A   0      44.332  86.302  87.703  0.00  0.00    +0.000 C 
ATOM     19  O   UNK A   0      43.914  87.324  87.117  0.00  0.00    +0.000 OA
ATOM     20  N   PHE A   1      45.179  85.483  87.174  0.00  0.00    +0.000 N 
ATOM     21  H   PHE A   1      45.462  84.668  87.718  0.00  0.00    +0.000 HD
BRANCH  20  22
ATOM     22  CA  PHE A   1      45.759  85.655  85.838  0.00  0.00    +0.000 C 
BRANCH  22  23
ATOM     23  C   PHE A   1      44.760  85.441  84.714  0.00  0.00    +0.000 C 
ATOM     24  O   PHE A   1      44.863  86.085  83.677  0.00  0.00    +0.000 OA
ATOM     25  N   GLN A   2      43.790  84.553  84.903  0.00  0.00    +0.000 N 
ATOM     26  H   GLN A   2      43.819  83.933  85.712  0.00  0.00    +0.000 HD
BRANCH  25  27
ATOM     27  CA  GLN A   2      42.677  84.461  83.952  0.00  0.00    +0.000 C 
BRANCH  27  28
ATOM     28  C   GLN A   2      42.004  85.816  83.799  0.00  0.00    +0.000 C 
ATOM     29  O   GLN A   2      41.793  86.285  82.682  0.00  0.00    +0.000 OA
ATOM     30  N   ARG A   3      41.695  86.434  84.938  0.00  0.00    +0.000 N 
ATOM     31  H   ARG A   3      41.878  85.954  85.819  0.00  0.00    +0.000 HD
BRANCH  30  32
ATOM     32  CA  ARG A   3      41.105  87.772  84.980  0.00  0.00    +0.000 C 
BRANCH  32  33
ATOM     33  C   ARG A   3      42.051  88.862  84.406  0.00  0.00    +0.000 C 
ATOM     34  O   ARG A   3      41.676  89.483  83.429  0.00  0.00    +0.000 OA
ENDBRANCH  32  33
BRANCH  32  35
ATOM     35  CB  ARG A   3      40.658  88.099  86.421  0.00  0.00    +0.000 C 
BRANCH  35  36
ATOM     36  CG  ARG A   3      39.928  89.417  86.592  0.00  0.00    +0.000 C 
BRANCH  36  37
ATOM     37  CD  ARG A   3      38.485  89.301  86.148  0.00  0.00    +0.000 C 
BRANCH  37  38
ATOM     38  NE  ARG A   3      37.888  90.595  85.855  0.00  0.00    +0.000 N 
ATOM     39  CZ  ARG A   3      36.599  90.780  85.587  0.00  0.00    +0.000 C 
ATOM     40  NH1 ARG A   3      36.167  92.011  85.320  0.00  0.00    +0.000 NA
ATOM     41  NH2 ARG A   3      35.733  89.754  85.594  0.00  0.00    +0.000 N 
ATOM     42  HE  ARG A   3      38.498  91.413  85.855  0.00  0.00    +0.000 HD
ATOM     43  HH1 ARG A   3      36.822  92.793  85.323  0.00  0.00    +0.000 HD
ATOM     44 HH21 ARG A   3      34.746  89.918  85.395  0.00  0.00    +0.000 HD
ATOM     45 HH22 ARG A   3      36.062  88.810  85.798  0.00  0.00    +0.000 HD
ENDBRANCH  37  38
ENDBRANCH  36  37
ENDBRANCH  35  36
ENDBRANCH  32  35
ENDBRANCH  30  32
ENDBRANCH  27  28
BRANCH  27  46
ATOM     46  CB  GLN A   2      41.631  83.440  84.382  0.00  0.00    +0.000 C 
BRANCH  46  47
ATOM     47  CG  GLN A   2      40.620  83.104  83.286  0.00  0.00    +0.000 C 
BRANCH  47  48
ATOM     48  CD  GLN A   2      39.547  82.143  83.758  0.00  0.00    +0.000 C 
ATOM     49  OE1 GLN A   2      39.351  81.952  84.962  0.00  0.00    +0.000 OA
ATOM     50  NE2 GLN A   2      38.838  81.532  82.808  0.00  0.00    +0.000 N 
ATOM     51 HE21 GLN A   2      38.099  80.877  83.065  0.00  0.00    +0.000 HD
ATOM     52 HE22 GLN A   2      39.034  81.720  81.825  0.00  0.00    +0.000 HD
ENDBRANCH  47  48
ENDBRANCH  46  47
ENDBRANCH  27  46
ENDBRANCH  25  27
ENDBRANCH  22  23
BRANCH  22  53
ATOM     53  CB  PHE A   1      46.958  84.714  85.691  0.00  0.00    +0.000 C 
BRANCH  53  54
ATOM     54  CG  PHE A   1      48.152  85.130  86.505  0.00  0.00    +0.000 A 
ATOM     55  CD1 PHE A   1      48.869  86.284  86.176  0.00  0.00    +0.000 A 
ATOM     56  CD2 PHE A   1      48.561  84.384  87.601  0.00  0.00    +0.000 A 
ATOM     57  CE1 PHE A   1      49.965  86.680  86.932  0.00  0.00    +0.000 A 
ATOM     58  CE2 PHE A   1      49.662  84.769  88.359  0.00  0.00    +0.000 A 
ATOM     59  CZ  PHE A   1      50.365  85.922  88.025  0.00  0.00    +0.000 A 
ENDBRANCH  53  54
ENDBRANCH  22  53
ENDBRANCH  20  22
ENDBRANCH  16  18
BRANCH  16  60
ATOM     60  C   UNK A   4      44.786  86.282  90.254  0.00  0.00    +0.000 C 
BRANCH  60  61
ATOM     61  C   UNK A   4      46.014  87.137  89.974  0.00  0.00    +0.000 C 
BRANCH  61  62
ATOM     62  C   UNK A   4      45.687  88.612  90.091  0.00  0.00    +0.000 C 
ATOM     63  C   UNK A   4      46.784  89.467  89.492  0.00  0.00    +0.000 C 
ENDBRANCH  61  62
ENDBRANCH  60  61
ENDBRANCH  16  60
ENDBRANCH  14  16
ENDBRANCH  11  12
BRANCH  11  64
ATOM     64  C   UNK A   4      41.375  82.055  89.798  0.00  0.00    +0.000 C 
BRANCH  64  65
ATOM     65  C   UNK A   4      40.810  80.632  89.720  0.00  0.00    +0.000 C 
ATOM     66  C   UNK A   4      39.847  80.401  90.870  0.00  0.00    +0.000 C 
ATOM     67  C   UNK A   4      40.134  80.353  88.376  0.00  0.00    +0.000 C 
ENDBRANCH  64  65
ENDBRANCH  11  64
ENDBRANCH   9  11
ENDBRANCH   6   7
BRANCH   6  68
ATOM     68  C   UNK A   4      46.024  79.530  89.235  0.00  0.00    +0.000 C 
BRANCH  68  69
ATOM     69  C   UNK A   4      47.309  78.759  89.585  0.00  0.00    +0.000 C 
ATOM     70  C   UNK A   4      47.013  77.271  89.683  0.00  0.00    +0.000 C 
ATOM     71  C   UNK A   4      48.431  79.007  88.582  0.00  0.00    +0.000 C 
ENDBRANCH  68  69
ENDBRANCH   6  68
ENDBRANCH   4   6
ENDBRANCH   1   2
BRANCH   1  74
ATOM     72  C   UNK A   4      44.385  82.947  92.970  0.00  0.00    +0.000 C 
ATOM     73  O   UNK A   4      44.022  83.735  92.125  0.00  0.00    +0.000 OA
ATOM     74  N   UNK A   4      45.672  82.669  93.193  0.00  0.00    +0.000 N 
ATOM     75  H   UNK A   4      45.918  82.034  93.952  0.00  0.00    +0.000 HD
BRANCH  72  76
ATOM     76  C   UNK A   4      43.338  82.218  93.812  0.00  0.00    +0.000 C 
BRANCH  76  79
ATOM     77  C   UNK A   4      43.616  79.948  92.954  0.00  0.00    +0.000 C 
ATOM     78  O   UNK A   4      43.377  80.271  91.803  0.00  0.00    +0.000 OA
ATOM     79  N   UNK A   4      43.676  80.809  93.959  0.00  0.00    +0.000 N 
ATOM     80  H   UNK A   4      43.971  80.471  94.875  0.00  0.00    +0.000 HD
BRANCH  77  81
ATOM     81  C   UNK A   4      43.855  78.499  93.322  0.00  0.00    +0.000 C 
BRANCH  81  84
ATOM     82  C   UNK A   4      46.228  78.900  93.955  0.00  0.00    +0.000 C 
ATOM     83  O   UNK A   4      46.532  79.497  92.895  0.00  0.00    +0.000 OA
ATOM     84  N   UNK A   4      45.031  78.354  94.203  0.00  0.00    +0.000 N 
ATOM     85  H   UNK A   4      44.925  77.803  95.055  0.00  0.00    +0.000 HD
BRANCH  82  86
ATOM     86  C   UNK A   4      47.248  78.760  95.081  0.00  0.00    +0.000 C 
BRANCH  86  89
ATOM     87  C   ARG A   3      49.230  78.232  93.773  0.00  0.00    +0.000 C 
ATOM     88  O   ARG A   3      48.805  77.106  93.491  0.00  0.00    +0.000 OA
ATOM     89  N   UNK A   4      48.592  79.073  94.583  0.00  0.00    +0.000 N 
ATOM     90  H   UNK A   4      49.042  79.945  94.861  0.00  0.00    +0.000 HD
BRANCH  87  91
ATOM     91  CA  ARG A   3      50.518  78.711  93.156  0.00  0.00    +0.000 C 
BRANCH  91  94
ATOM     92  C   GLN A   2      52.715  77.795  93.683  0.00  0.00    +0.000 C 
ATOM     93  O   GLN A   2      53.177  78.893  93.945  0.00  0.00    +0.000 OA
ATOM     94  N   ARG A   3      51.470  77.616  93.273  0.00  0.00    +0.000 N 
ATOM     95  H   ARG A   3      51.165  76.674  93.029  0.00  0.00    +0.000 HD
BRANCH  92  96
ATOM     96  CA  GLN A   2      53.565  76.537  93.803  0.00  0.00    +0.000 C 
BRANCH  96  99
ATOM     97  C   PHE A   1      55.667  76.096  92.569  0.00  0.00    +0.000 C 
ATOM     98  O   PHE A   1      55.218  75.110  91.980  0.00  0.00    +0.000 OA
ATOM     99  N   GLN A   2      54.966  76.816  93.447  0.00  0.00    +0.000 N 
ATOM    100  H   GLN A   2      55.428  77.606  93.898  0.00  0.00    +0.000 HD
BRANCH  97 101
ATOM    101  CA  PHE A   1      57.116  76.539  92.335  0.00  0.00    +0.000 C 
ATOM    102  CB  PHE A   1      57.347  76.843  90.840  0.00  0.00    +0.000 C 
BRANCH 101 103
ATOM    103  N   PHE A   1      58.085  75.506  92.834  0.00  0.00    +0.000 N 
ATOM    104  H1  PHE A   1      57.909  75.326  93.822  0.00  0.00    +0.000 HD
ATOM    105  H2  PHE A   1      57.964  74.644  92.303  0.00  0.00    +0.000 HD
ATOM    106  H3  PHE A   1      59.038  75.850  92.714  0.00  0.00    +0.000 HD
ENDBRANCH 101 103
ENDBRANCH  97 101
ENDBRANCH  96  99
BRANCH  96 107
ATOM    107  CB  GLN A   2      53.455  75.990  95.232  0.00  0.00    +0.000 C 
BRANCH 107 108
ATOM    108  CG  GLN A   2      54.021  74.581  95.398  0.00  0.00    +0.000 C 
BRANCH 108 109
ATOM    109  CD  GLN A   2      55.407  74.556  96.029  0.00  0.00    +0.000 C 
BRANCH 109 110
ATOM    110  NE  GLN A   2      55.347  74.440  97.490  0.00  0.00    +0.000 N 
ATOM    111  CZ  GLN A   2      56.407  74.333  98.297  0.00  0.00    +0.000 C 
ATOM    112  NH1 GLN A   2      57.650  74.336  97.809  0.00  0.00    +0.000 N 
ATOM    113  NH2 GLN A   2      56.225  74.232  99.612  0.00  0.00    +0.000 NA
ATOM    114  HE  GLN A   2      54.424  74.441  97.924  0.00  0.00    +0.000 HD
ATOM    115 HH11 GLN A   2      58.447  74.261  98.442  0.00  0.00    +0.000 HD
ATOM    116 HH12 GLN A   2      57.803  74.413  96.803  0.00  0.00    +0.000 HD
ATOM    117  HH2 GLN A   2      55.281  74.237  99.998  0.00  0.00    +0.000 HD
ENDBRANCH 109 110
ENDBRANCH 108 109
ENDBRANCH 107 108
ENDBRANCH  96 107
ENDBRANCH  92  96
ENDBRANCH  91  94
BRANCH  91 118
ATOM    118  CB  ARG A   3      50.245  79.036  91.686  0.00  0.00    +0.000 C 
BRANCH 118 119
ATOM    119  CG  ARG A   3      51.433  79.532  90.897  0.00  0.00    +0.000 A 
ATOM    120  CD1 ARG A   3      51.744  80.889  90.825  0.00  0.00    +0.000 A 
ATOM    121  CD2 ARG A   3      52.235  78.643  90.195  0.00  0.00    +0.000 A 
ATOM    122  CE1 ARG A   3      52.832  81.341  90.079  0.00  0.00    +0.000 A 
ATOM    123  CE2 ARG A   3      53.330  79.073  89.465  0.00  0.00    +0.000 A 
ATOM    124  CZ  ARG A   3      53.623  80.424  89.396  0.00  0.00    +0.000 A 
BRANCH 124 125
ATOM    125  OH  ARG A   3      54.716  80.824  88.663  0.00  0.00    +0.000 OA
ATOM    126  HH  ARG A   3      55.133  80.055  88.267  0.00  0.00    +0.000 HD
ENDBRANCH 124 125
ENDBRANCH 118 119
ENDBRANCH  91 118
ENDBRANCH  87  91
ENDBRANCH  86  89
BRANCH  86 127
ATOM    127  C   UNK A   4      46.870  79.669  96.259  0.00  0.00    +0.000 C 
BRANCH 127 128
ATOM    128  O   UNK A   4      46.864  81.034  95.868  0.00  0.00    +0.000 OA
ATOM    129  H   UNK A   4      46.625  81.580  96.621  0.00  0.00    +0.000 HD
ENDBRANCH 127 128
ENDBRANCH  86 127
ENDBRANCH  82  86
ENDBRANCH  81  84
BRANCH  81 130
ATOM    130  C   UNK A   4      42.565  77.965  93.996  0.00  0.00    +0.000 C 
BRANCH 130 131
ATOM    131  C   UNK A   4      41.386  77.785  93.027  0.00  0.00    +0.000 C 
BRANCH 131 132
ATOM    132  C   UNK A   4      39.986  77.956  93.629  0.00  0.00    +0.000 C 
BRANCH 132 133
ATOM    133  N   UNK A   4      39.498  76.729  94.248  0.00  0.00    +0.000 N 
ATOM    134  C   UNK A   4      39.686  76.372  95.529  0.00  0.00    +0.000 C 
ATOM    135  N   UNK A   4      39.210  75.201  95.957  0.00  0.00    +0.000 NA
ATOM    136  N   UNK A   4      40.324  77.169  96.401  0.00  0.00    +0.000 N 
ATOM    137  H   UNK A   4      38.969  76.087  93.658  0.00  0.00    +0.000 HD
ATOM    138  H   UNK A   4      38.710  74.588  95.313  0.00  0.00    +0.000 HD
ATOM    139  H   UNK A   4      40.438  76.876  97.371  0.00  0.00    +0.000 HD
ATOM    140  H   UNK A   4      40.695  78.068  96.093  0.00  0.00    +0.000 HD
ENDBRANCH 132 133
ENDBRANCH 131 132
ENDBRANCH 130 131
ENDBRANCH  81 130
ENDBRANCH  77  81
ENDBRANCH  76  79
BRANCH  76 141
ATOM    141  C   UNK A   4      43.157  82.891  95.190  0.00  0.00    +0.000 C 
BRANCH 141 142
ATOM    142  C   UNK A   4      41.827  82.560  95.884  0.00  0.00    +0.000 C 
BRANCH 142 143
ATOM    143  C   UNK A   4      41.679  81.094  96.303  0.00  0.00    +0.000 C 
ATOM    144  O   UNK A   4      40.615  80.498  96.020  0.00  0.00    +0.000 OA
BRANCH 143 145
ATOM    145  O   UNK A   4      42.624  80.534  96.905  0.00  0.00    +0.000 OA
ATOM    146  H   UNK A   4      43.342  81.160  97.024  0.00  0.00    +0.000 HD
ENDBRANCH 143 145
ENDBRANCH 142 143
ENDBRANCH 141 142
ENDBRANCH  76 141
ENDBRANCH  72  76
ENDBRANCH   1  74
BRANCH   1 147
ATOM    147  C   UNK A   4      48.123  82.907  92.935  0.00  0.00    +0.000 C 
BRANCH 147 148
ATOM    148  C   UNK A   4      48.405  83.503  94.315  0.00  0.00    +0.000 C 
BRANCH 148 149
ATOM    149  C   UNK A   4      49.629  82.903  95.008  0.00  0.00    +0.000 C 
ATOM    150  O   UNK A   4      50.112  81.823  94.655  0.00  0.00    +0.000 OA
ATOM    151  N   UNK A   4      50.136  83.617  96.004  0.00  0.00    +0.000 N 
ATOM    152  H   UNK A   4      50.955  83.278  96.509  0.00  0.00    +0.000 HD
ATOM    153  H   UNK A   4      49.707  84.505  96.265  0.00  0.00    +0.000 HD
ENDBRANCH 148 149
ENDBRANCH 147 148
ENDBRANCH   1 147
TORSDOF 62
