REMARK  Name = 6rot_ligand
REMARK  10 active torsions:
REMARK  status: ('A' for Active; 'I' for Inactive)
REMARK    1  A    between atoms: C_5  and  C_26
REMARK    2  A    between atoms: C_8  and  C_10
REMARK    3  A    between atoms: C_8  and  O_30
REMARK    4  A    between atoms: C_9  and  C_29
REMARK    5  A    between atoms: C_11  and  C_12
REMARK    6  A    between atoms: C_12  and  S_21
REMARK    7  A    between atoms: C_13  and  C_24
REMARK    8  A    between atoms: S_21  and  N_23
REMARK    9  A    between atoms: N_23  and  C_24
REMARK   10  A    between atoms: N_28  and  C_29
REMARK                            x       y       z     vdW  Elec       q    Type
REMARK                         _______ _______ _______ _____ _____    ______ ____
ROOT
ATOM      1  C   UNL     1      17.739 -11.369  20.831  0.00  0.00    +0.000 C 
ATOM      2  C   UNL     1      18.594 -11.277  19.562  0.00  0.00    +0.000 C 
ATOM      3  C   UNL     1      19.865 -12.036  19.924  0.00  0.00    +0.000 C 
ATOM      4  C   UNL     1      17.521 -13.190  22.459  0.00  0.00    +0.000 C 
ATOM      5  C   UNL     1      19.388 -13.175  20.792  0.00  0.00    +0.000 C 
ATOM      6  N   UNL     1      18.176 -12.633  21.430  0.00  0.00    +0.000 N 
ATOM      7  O   UNL     1      16.488 -12.714  22.924  0.00  0.00    +0.000 OA
ENDROOT
BRANCH   1   8
ATOM      8  C   UNL     1      16.249 -11.409  20.502  0.00  0.00    +0.000 C 
ATOM      9  O   UNL     1      15.745 -12.402  19.973  0.00  0.00    +0.000 OA
ATOM     10  N   UNL     1      15.559 -10.302  20.791  0.00  0.00    +0.000 N 
ATOM     11  H   UNL     1      16.036  -9.536  21.267  0.00  0.00    +0.000 HD
BRANCH  10  12
ATOM     12  C   UNL     1      14.150 -10.147  20.452  0.00  0.00    +0.000 C 
BRANCH  12  16
ATOM     13  C   UNL     1      13.173  -9.004  22.476  0.00  0.00    +0.000 A 
ATOM     14  C   UNL     1      11.482 -10.043  23.824  0.00  0.00    +0.000 A 
ATOM     15  C   UNL     1      11.555 -11.169  23.028  0.00  0.00    +0.000 A 
ATOM     16  C   UNL     1      13.243 -10.130  21.660  0.00  0.00    +0.000 A 
ATOM     17  C   UNL     1      12.422 -11.233  21.940  0.00  0.00    +0.000 A 
ATOM     18  C   UNL     1      12.298  -8.976  23.539  0.00  0.00    +0.000 A 
ATOM     19 CL   UNL     1      12.243  -7.563  24.549  0.00  0.00    +0.000 Cl
BRANCH  17  20
ATOM     20  C   UNL     1      12.439 -12.461  21.068  0.00  0.00    +0.000 C 
BRANCH  20  21
ATOM     21  O   UNL     1      13.273 -13.460  21.593  0.00  0.00    +0.000 OA
ATOM     22  H   UNL     1      13.259 -14.225  21.013  0.00  0.00    +0.000 HD
ENDBRANCH  20  21
ENDBRANCH  17  20
ENDBRANCH  12  16
ENDBRANCH  10  12
ENDBRANCH   1   8
BRANCH   4  23
ATOM     23  C   UNL     1      18.128 -14.448  22.992  0.00  0.00    +0.000 C 
BRANCH  23  24
ATOM     24  N   UNL     1      17.202 -15.035  23.948  0.00  0.00    +0.000 NA
ATOM     25  H   UNL     1      16.275 -14.635  24.092  0.00  0.00    +0.000 HD
BRANCH  24  27
ATOM     26  O   UNL     1      18.597 -17.070  23.944  0.00  0.00    +0.000 OA
ATOM     27  S   UNL     1      17.687 -16.355  24.787  0.00  0.00    +0.000 S 
ATOM     28  O   UNL     1      16.494 -17.006  25.235  0.00  0.00    +0.000 OA
BRANCH  27  29
ATOM     29  C   UNL     1      18.591 -15.780  26.218  0.00  0.00    +0.000 C 
BRANCH  29  31
ATOM     30  C   UNL     1      20.891 -15.368  25.286  0.00  0.00    +0.000 A 
ATOM     31  C   UNL     1      19.740 -14.868  25.880  0.00  0.00    +0.000 A 
ATOM     32  C   UNL     1      21.899 -14.513  24.868  0.00  0.00    +0.000 A 
ATOM     33  C   UNL     1      21.772 -13.151  25.045  0.00  0.00    +0.000 A 
ATOM     34  C   UNL     1      20.645 -12.644  25.659  0.00  0.00    +0.000 A 
ATOM     35  C   UNL     1      19.637 -13.497  26.079  0.00  0.00    +0.000 A 
ENDBRANCH  29  31
ENDBRANCH  27  29
ENDBRANCH  24  27
ENDBRANCH  23  24
ENDBRANCH   4  23
TORSDOF 10
