REMARK  Name = 6dz3_ligand
REMARK  13 active torsions:
REMARK  status: ('A' for Active; 'I' for Inactive)
REMARK    1  A    between atoms: O_1  and  C_2
REMARK    2  A    between atoms: N_4  and  C_5
REMARK    3  A    between atoms: C_5  and  C_6
REMARK    4  A    between atoms: C_17  and  C_18
REMARK    5  A    between atoms: C_18  and  S_19
REMARK    6  A    between atoms: S_19  and  C_20
REMARK    7  A    between atoms: C_20  and  C_21
REMARK    8  A    between atoms: C_21  and  C_22
REMARK    9  A    between atoms: C_22  and  C_23
REMARK   10  A    between atoms: N_26  and  C_28
REMARK   11  A    between atoms: C_28  and  C_29
REMARK   12  A    between atoms: C_29  and  C_31
REMARK   13  A    between atoms: C_30  and  C_31
REMARK                            x       y       z     vdW  Elec       q    Type
REMARK                         _______ _______ _______ _____ _____    ______ ____
ROOT
ATOM      1  C   UNL     1      84.714 161.306 177.955  0.00  0.00    +0.000 C 
ATOM      2  C   UNL     1      84.746 162.226 176.744  0.00  0.00    +0.000 C 
ATOM      3  N   UNL     1      85.860 161.711 175.944  0.00  0.00    +0.000 N 
ATOM      4  C   UNL     1      85.941 160.252 176.128  0.00  0.00    +0.000 C 
ATOM      5  C   UNL     1      85.562 160.067 177.596  0.00  0.00    +0.000 C 
ATOM      6  H   UNL     1      86.741 162.095 176.284  0.00  0.00    +0.000 HD
ENDROOT
BRANCH   1   7
ATOM      7  O   UNL     1      85.216 162.077 179.050  0.00  0.00    +0.000 OA
ATOM      8  H   UNL     1      84.634 162.824 179.207  0.00  0.00    +0.000 HD
ENDBRANCH   1   7
BRANCH   3   9
ATOM      9  C   UNL     1      85.859 162.199 174.553  0.00  0.00    +0.000 C 
BRANCH   9  10
ATOM     10  C   UNL     1      84.780 161.736 173.610  0.00  0.00    +0.000 C 
ATOM     11  C   UNL     1      83.503 162.249 173.408  0.00  0.00    +0.000 A 
ATOM     12  N   UNL     1      82.885 163.284 174.032  0.00  0.00    +0.000 NA
ATOM     13  C   UNL     1      81.628 163.629 173.672  0.00  0.00    +0.000 A 
ATOM     14  N   UNL     1      80.969 162.951 172.700  0.00  0.00    +0.000 NA
ATOM     15  C   UNL     1      81.573 161.924 172.032  0.00  0.00    +0.000 A 
ATOM     16  N   UNL     1      80.899 161.274 171.051  0.00  0.00    +0.000 N 
ATOM     17  C   UNL     1      82.879 161.549 172.390  0.00  0.00    +0.000 A 
ATOM     18  N   UNL     1      83.749 160.598 171.978  0.00  0.00    +0.000 NA
ATOM     19  C   UNL     1      84.904 160.691 172.703  0.00  0.00    +0.000 C 
ATOM     20  H   UNL     1      79.947 161.553 170.816  0.00  0.00    +0.000 HD
ATOM     21  H   UNL     1      81.345 160.506 170.548  0.00  0.00    +0.000 HD
ENDBRANCH   9  10
ENDBRANCH   3   9
BRANCH   5  22
ATOM     22  C   UNL     1      84.797 158.767 177.816  0.00  0.00    +0.000 C 
BRANCH  22  23
ATOM     23  S   UNL     1      85.750 157.328 177.407  0.00  0.00    +0.000 S 
BRANCH  23  24
ATOM     24  C   UNL     1      87.204 157.253 178.406  0.00  0.00    +0.000 C 
BRANCH  24  25
ATOM     25  C   UNL     1      88.393 157.780 177.598  0.00  0.00    +0.000 C 
BRANCH  25  26
ATOM     26  C   UNL     1      89.775 157.606 178.237  0.00  0.00    +0.000 C 
BRANCH  26  27
ATOM     27  C   UNL     1      90.768 158.532 177.552  0.00  0.00    +0.000 A 
ATOM     28  N   UNL     1      90.467 159.784 177.131  0.00  0.00    +0.000 NA
ATOM     29  N   UNL     1      91.583 160.380 176.537  0.00  0.00    +0.000 NA
ATOM     30  N   UNL     1      92.569 159.409 176.639  0.00  0.00    +0.000 N 
ATOM     31  C   UNL     1      92.113 158.295 177.237  0.00  0.00    +0.000 A 
BRANCH  30  32
ATOM     32  C   UNL     1      93.833 159.841 176.051  0.00  0.00    +0.000 C 
BRANCH  32  33
ATOM     33  C   UNL     1      93.593 160.195 174.576  0.00  0.00    +0.000 C 
BRANCH  33  35
ATOM     34  C   UNL     1      94.325 159.834 172.208  0.00  0.00    +0.000 C 
ATOM     35  C   UNL     1      94.710 159.703 173.667  0.00  0.00    +0.000 C 
ENDBRANCH  33  35
ENDBRANCH  32  33
ENDBRANCH  30  32
ENDBRANCH  26  27
ENDBRANCH  25  26
ENDBRANCH  24  25
ENDBRANCH  23  24
ENDBRANCH  22  23
ENDBRANCH   5  22
TORSDOF 12
