REMARK  Name = 6uii_ligand
REMARK  10 active torsions:
REMARK  status: ('A' for Active; 'I' for Inactive)
REMARK    1  A    between atoms: C_1  and  C_2
REMARK    2  A    between atoms: C_1  and  N_9
REMARK    3  A    between atoms: C_2  and  C_3
REMARK    4  A    between atoms: C_3  and  N_10
REMARK    5  A    between atoms: C_4  and  C_5
REMARK    6  A    between atoms: C_4  and  N_10
REMARK    7  A    between atoms: C_5  and  C_6
REMARK    8  A    between atoms: C_6  and  C_7
REMARK    9  A    between atoms: C_7  and  C_8
REMARK   10  A    between atoms: C_8  and  S_11
REMARK                            x       y       z     vdW  Elec       q    Type
REMARK                         _______ _______ _______ _____ _____    ______ ____
ROOT
ATOM      1  N   UNL     1     -26.102 -39.291  34.682  0.00  0.00    +0.000 N 
ATOM      2  H   UNL     1     -26.165 -38.466  35.278  0.00  0.00    +0.000 HD
ATOM      3  H   UNL     1     -25.918 -39.032  33.713  0.00  0.00    +0.000 HD
ENDROOT
BRANCH   1   4
ATOM      4  C   UNL     1     -27.373 -40.007  34.740  0.00  0.00    +0.000 C 
BRANCH   4   5
ATOM      5  C   UNL     1     -28.098 -39.832  33.421  0.00  0.00    +0.000 C 
BRANCH   5   6
ATOM      6  C   UNL     1     -28.948 -41.063  33.118  0.00  0.00    +0.000 C 
BRANCH   6   7
ATOM      7  N   UNL     1     -29.661 -41.038  31.844  0.00  0.00    +0.000 N 
ATOM      8  H   UNL     1     -30.196 -41.900  31.738  0.00  0.00    +0.000 HD
ATOM      9  H   UNL     1     -30.295 -40.239  31.826  0.00  0.00    +0.000 HD
ATOM     10  H   UNL     1     -28.989 -40.957  31.081  0.00  0.00    +0.000 HD
ENDBRANCH   6   7
ENDBRANCH   5   6
ENDBRANCH   4   5
ENDBRANCH   1   4
BRANCH   1  11
ATOM     11  C   UNL     1     -24.996 -40.133  35.161  0.00  0.00    +0.000 C 
BRANCH  11  12
ATOM     12  C   UNL     1     -23.688 -39.421  34.919  0.00  0.00    +0.000 C 
BRANCH  12  13
ATOM     13  C   UNL     1     -22.894 -40.226  33.956  0.00  0.00    +0.000 C 
BRANCH  13  14
ATOM     14  C   UNL     1     -21.612 -39.552  33.687  0.00  0.00    +0.000 C 
BRANCH  14  15
ATOM     15  C   UNL     1     -20.499 -40.489  33.938  0.00  0.00    +0.000 C 
BRANCH  15  16
ATOM     16  S   UNL     1     -19.050 -39.598  33.411  0.00  0.00    +0.000 S 
ATOM     17  H   UNL     1     -17.974 -40.357  33.594  0.00  0.00    +0.000 HD
ENDBRANCH  15  16
ENDBRANCH  14  15
ENDBRANCH  13  14
ENDBRANCH  12  13
ENDBRANCH  11  12
ENDBRANCH   1  11
TORSDOF 10
