REMARK  Name = 6oxz_ligand
REMARK  20 active torsions:
REMARK  status: ('A' for Active; 'I' for Inactive)
REMARK    1  A    between atoms: C_1  and  C_2
REMARK    2  A    between atoms: C_1  and  C_16
REMARK    3  A    between atoms: C_1  and  O_35
REMARK    4  A    between atoms: C_2  and  C_8
REMARK    5  A    between atoms: C_2  and  N_32
REMARK    6  A    between atoms: C_3  and  O_37
REMARK    7  A    between atoms: C_4  and  O_37
REMARK    8  A    between atoms: C_8  and  C_19
REMARK    9  A    between atoms: C_9  and  C_30
REMARK   10  A    between atoms: C_12  and  S_42
REMARK   11  A    between atoms: C_15  and  C_27
REMARK   12  A    between atoms: C_15  and  N_31
REMARK   13  A    between atoms: C_16  and  N_31
REMARK   14  A    between atoms: C_25  and  C_30
REMARK   15  A    between atoms: C_25  and  O_41
REMARK   16  A    between atoms: C_26  and  C_28
REMARK   17  A    between atoms: C_27  and  C_28
REMARK   18  A    between atoms: C_27  and  C_29
REMARK   19  A    between atoms: C_30  and  O_40
REMARK   20  A    between atoms: N_31  and  S_42
REMARK                            x       y       z     vdW  Elec       q    Type
REMARK                         _______ _______ _______ _____ _____    ______ ____
ROOT
ATOM      1  C   UNL     1      70.898  57.488  15.141  0.00  0.00    +0.000 C 
ENDROOT
BRANCH   1   2
ATOM      2  O   UNL     1      70.680  58.591  14.314  0.00  0.00    +0.000 OA
ATOM      3  H   UNL     1      71.210  59.330  14.621  0.00  0.00    +0.000 HD
ENDBRANCH   1   2
BRANCH   1   4
ATOM      4  C   UNL     1      70.047  56.291  14.653  0.00  0.00    +0.000 C 
BRANCH   4   5
ATOM      5  N   UNL     1      70.403  55.095  15.497  0.00  0.00    +0.000 NA
BRANCH   5   8
ATOM      6  O   UNL     1      68.189  55.478  16.955  0.00  0.00    +0.000 OA
ATOM      7  O   UNL     1      69.661  53.842  17.729  0.00  0.00    +0.000 OA
ATOM      8  S   UNL     1      69.133  54.454  16.494  0.00  0.00    +0.000 S 
BRANCH   8  12
ATOM      9  C   UNL     1      67.134  51.166  13.546  0.00  0.00    +0.000 A 
ATOM     10  C   UNL     1      66.680  52.625  13.449  0.00  0.00    +0.000 A 
ATOM     11  C   UNL     1      67.304  53.664  14.385  0.00  0.00    +0.000 A 
ATOM     12  C   UNL     1      68.352  53.212  15.386  0.00  0.00    +0.000 A 
ATOM     13  C   UNL     1      68.824  51.758  15.471  0.00  0.00    +0.000 A 
ATOM     14  C   UNL     1      68.201  50.726  14.537  0.00  0.00    +0.000 A 
BRANCH   9  15
ATOM     15  C   UNL     1      66.537  50.143  12.610  0.00  0.00    +0.000 C 
BRANCH  15  16
ATOM     16  O   UNL     1      65.628  50.788  11.770  0.00  0.00    +0.000 OA
ATOM     17  H   UNL     1      65.240  50.148  11.168  0.00  0.00    +0.000 HD
ENDBRANCH  15  16
BRANCH  15  18
ATOM     18  C   UNL     1      67.718  49.592  11.794  0.00  0.00    +0.000 C 
BRANCH  18  19
ATOM     19  O   UNL     1      68.503  50.681  11.338  0.00  0.00    +0.000 OA
ATOM     20  H   UNL     1      69.244  50.348  10.827  0.00  0.00    +0.000 HD
ENDBRANCH  18  19
ENDBRANCH  15  18
ENDBRANCH   9  15
ENDBRANCH   8  12
ENDBRANCH   5   8
BRANCH   5  21
ATOM     21  C   UNL     1      71.284  54.059  14.875  0.00  0.00    +0.000 C 
BRANCH  21  22
ATOM     22  C   UNL     1      72.777  54.454  14.953  0.00  0.00    +0.000 C 
ATOM     23  C   UNL     1      73.213  54.546  16.393  0.00  0.00    +0.000 C 
BRANCH  22  25
ATOM     24  C   UNL     1      73.316  51.984  14.769  0.00  0.00    +0.000 C 
ATOM     25  C   UNL     1      73.616  53.391  14.215  0.00  0.00    +0.000 C 
ENDBRANCH  22  25
ENDBRANCH  21  22
ENDBRANCH   5  21
ENDBRANCH   4   5
ENDBRANCH   1   4
BRANCH   1  26
ATOM     26  C   UNL     1      70.526  57.832  16.580  0.00  0.00    +0.000 C 
BRANCH  26  28
ATOM     27  C   UNL     1      72.460  58.564  18.102  0.00  0.00    +0.000 C 
ATOM     28  N   UNL     1      71.468  58.844  17.036  0.00  0.00    +0.000 N 
ATOM     29  O   UNL     1      72.472  57.533  18.685  0.00  0.00    +0.000 OA
ATOM     30  H   UNL     1      71.445  59.771  16.611  0.00  0.00    +0.000 HD
BRANCH  27  31
ATOM     31  O   UNL     1      73.380  59.617  18.381  0.00  0.00    +0.000 OA
BRANCH  31  32
ATOM     32  C   UNL     1      74.152  59.564  19.593  0.00  0.00    +0.000 C 
ATOM     33  C   UNL     1      75.631  60.162  19.205  0.00  0.00    +0.000 C 
ATOM     34  C   UNL     1      74.310  61.813  20.123  0.00  0.00    +0.000 C 
ATOM     35  C   UNL     1      71.989  61.643  19.745  0.00  0.00    +0.000 C 
ATOM     36  C   UNL     1      73.703  60.402  20.527  0.00  0.00    +0.000 C 
ATOM     37  C   UNL     1      72.216  60.618  20.531  0.00  0.00    +0.000 C 
ATOM     38  O   UNL     1      75.412  61.484  19.073  0.00  0.00    +0.000 OA
ATOM     39  O   UNL     1      73.387  62.487  19.611  0.00  0.00    +0.000 OA
ENDBRANCH  31  32
ENDBRANCH  27  31
ENDBRANCH  26  28
BRANCH  26  40
ATOM     40  C   UNL     1      69.116  58.437  16.672  0.00  0.00    +0.000 C 
BRANCH  40  41
ATOM     41  C   UNL     1      68.878  58.903  18.135  0.00  0.00    +0.000 A 
ATOM     42  C   UNL     1      68.495  57.883  19.211  0.00  0.00    +0.000 A 
ATOM     43  C   UNL     1      68.265  58.344  20.656  0.00  0.00    +0.000 A 
ATOM     44  C   UNL     1      68.418  59.819  21.022  0.00  0.00    +0.000 A 
ATOM     45  C   UNL     1      68.803  60.843  19.943  0.00  0.00    +0.000 A 
ATOM     46  C   UNL     1      69.034  60.385  18.505  0.00  0.00    +0.000 A 
ENDBRANCH  40  41
ENDBRANCH  26  40
ENDBRANCH   1  26
TORSDOF 18
