REMARK  Name = 6qw8_ligand
REMARK  6 active torsions:
REMARK  status: ('A' for Active; 'I' for Inactive)
REMARK    1  A    between atoms: C_6  and  C_11
REMARK    2  A    between atoms: C_10  and  N_14
REMARK    3  A    between atoms: C_12  and  N_15
REMARK    4  A    between atoms: N_15  and  O_22
REMARK    5  A    between atoms: O_21  and  S_23
REMARK    6  A    between atoms: O_22  and  S_23
REMARK                            x       y       z     vdW  Elec       q    Type
REMARK                         _______ _______ _______ _____ _____    ______ ____
ROOT
ATOM      1  C   UNL     1      -7.909  -1.116  10.463  0.00  0.00    +0.000 C 
ATOM      2  C   UNL     1      -7.542  -1.244  12.958  0.00  0.00    +0.000 C 
ATOM      3  C   UNL     1      -5.929  -3.081  13.150  0.00  0.00    +0.000 C 
ATOM      4  C   UNL     1      -5.599  -1.311  11.521  0.00  0.00    +0.000 C 
ATOM      5  C   UNL     1      -6.417  -1.481  10.242  0.00  0.00    +0.000 C 
ATOM      6  C   UNL     1      -8.473  -1.667  11.817  0.00  0.00    +0.000 C 
ATOM      7  N   UNL     1      -6.290  -1.892  12.626  0.00  0.00    +0.000 N 
ATOM      8  O   UNL     1      -4.972  -3.735  12.663  0.00  0.00    +0.000 OA
ENDROOT
BRANCH   4   9
ATOM      9  C   UNL     1      -5.250   0.142  11.762  0.00  0.00    +0.000 C 
ATOM     10  N   UNL     1      -4.529   0.832  10.894  0.00  0.00    +0.000 N 
ATOM     11  O   UNL     1      -5.581   0.725  12.822  0.00  0.00    +0.000 OA
ATOM     12  H   UNL     1      -4.234   0.393  10.022  0.00  0.00    +0.000 HD
BRANCH  10  17
ATOM     13  C   UNL     1      -2.553   4.092  10.662  0.00  0.00    +0.000 C 
ATOM     14  C   UNL     1      -4.903   4.644  11.469  0.00  0.00    +0.000 C 
ATOM     15  C   UNL     1      -3.072   2.719  10.207  0.00  0.00    +0.000 C 
ATOM     16  C   UNL     1      -5.350   3.199  11.107  0.00  0.00    +0.000 C 
ATOM     17  C   UNL     1      -4.151   2.212  11.169  0.00  0.00    +0.000 C 
ATOM     18  N   UNL     1      -3.655   5.110  10.734  0.00  0.00    +0.000 N 
ATOM     19  H   UNL     1      -3.934   5.314   9.774  0.00  0.00    +0.000 HD
ATOM     20  H   UNL     1      -3.288   5.910  11.250  0.00  0.00    +0.000 HD
ENDBRANCH  10  17
ENDBRANCH   4   9
BRANCH   6  21
ATOM     21  N   UNL     1      -8.419  -3.175  11.750  0.00  0.00    +0.000 N 
ATOM     22  H   UNL     1      -8.986  -3.564  12.503  0.00  0.00    +0.000 HD
ATOM     23  H   UNL     1      -7.450  -3.480  11.847  0.00  0.00    +0.000 HD
BRANCH  21  24
ATOM     24  O   UNL     1      -8.910  -3.612  10.545  0.00  0.00    +0.000 OA
BRANCH  24  27
ATOM     25  O   UNL     1      -7.912  -5.593   9.577  0.00  0.00    +0.000 OA
ATOM     26  O   UNL     1      -8.179  -5.274  11.945  0.00  0.00    +0.000 OA
ATOM     27  S   UNL     1      -8.771  -5.238  10.653  0.00  0.00    +0.000 S 
BRANCH  27  28
ATOM     28  O   UNL     1     -10.128  -5.663  10.657  0.00  0.00    +0.000 OA
ATOM     29  H   UNL     1     -10.561  -5.339  11.450  0.00  0.00    +0.000 HD
ENDBRANCH  27  28
ENDBRANCH  24  27
ENDBRANCH  21  24
ENDBRANCH   6  21
TORSDOF 6
