REMARK  Name = 6dyz_ligand
REMARK  7 active torsions:
REMARK  status: ('A' for Active; 'I' for Inactive)
REMARK    1  A    between atoms: O_1  and  C_2
REMARK    2  A    between atoms: N_4  and  C_12
REMARK    3  A    between atoms: C_6  and  C_7
REMARK    4  A    between atoms: C_7  and  S_8
REMARK    5  A    between atoms: S_8  and  C_9
REMARK    6  A    between atoms: C_9  and  C_10
REMARK    7  A    between atoms: C_12  and  C_13
REMARK                            x       y       z     vdW  Elec       q    Type
REMARK                         _______ _______ _______ _____ _____    ______ ____
ROOT
ATOM      1  C   UNL     1      60.604  17.093  31.764  0.00  0.00    +0.000 C 
ATOM      2  C   UNL     1      60.986  17.616  30.394  0.00  0.00    +0.000 C 
ATOM      3  N   UNL     1      61.793  16.479  29.904  0.00  0.00    +0.000 N 
ATOM      4  C   UNL     1      61.000  15.274  30.214  0.00  0.00    +0.000 C 
ATOM      5  C   UNL     1      60.289  15.616  31.526  0.00  0.00    +0.000 C 
ATOM      6  H   UNL     1      62.697  16.442  30.375  0.00  0.00    +0.000 HD
ENDROOT
BRANCH   1   7
ATOM      7  O   UNL     1      61.716  17.287  32.641  0.00  0.00    +0.000 OA
ATOM      8  H   UNL     1      61.871  18.227  32.756  0.00  0.00    +0.000 HD
ENDBRANCH   1   7
BRANCH   5   9
ATOM      9  C   UNL     1      58.781  15.356  31.437  0.00  0.00    +0.000 C 
BRANCH   9  10
ATOM     10  S   UNL     1      58.379  13.647  31.115  0.00  0.00    +0.000 S 
BRANCH  10  11
ATOM     11  C   UNL     1      58.924  12.831  32.543  0.00  0.00    +0.000 C 
BRANCH  11  12
ATOM     12  C   UNL     1      58.306  13.260  33.786  0.00  0.00    +0.000 C 
ATOM     13  C   UNL     1      57.730  13.670  34.849  0.00  0.00    +0.000 C 
ENDBRANCH  11  12
ENDBRANCH  10  11
ENDBRANCH   9  10
ENDBRANCH   5   9
BRANCH   3  14
ATOM     14  C   UNL     1      62.226  16.595  28.517  0.00  0.00    +0.000 C 
BRANCH  14  15
ATOM     15  C   UNL     1      61.218  16.690  27.415  0.00  0.00    +0.000 C 
ATOM     16  C   UNL     1      60.589  17.906  26.909  0.00  0.00    +0.000 A 
ATOM     17  N   UNL     1      60.670  19.164  27.366  0.00  0.00    +0.000 NA
ATOM     18  C   UNL     1      60.824  15.701  26.565  0.00  0.00    +0.000 C 
ATOM     19  N   UNL     1      59.961  16.139  25.630  0.00  0.00    +0.000 NA
ATOM     20  C   UNL     1      59.788  17.475  25.780  0.00  0.00    +0.000 A 
ATOM     21  C   UNL     1      59.078  18.530  25.104  0.00  0.00    +0.000 A 
ATOM     22  N   UNL     1      58.322  18.247  24.042  0.00  0.00    +0.000 N 
ATOM     23  N   UNL     1      59.195  19.766  25.634  0.00  0.00    +0.000 NA
ATOM     24  C   UNL     1      59.965  20.057  26.675  0.00  0.00    +0.000 A 
ATOM     25  H   UNL     1      58.248  17.285  23.710  0.00  0.00    +0.000 HD
ATOM     26  H   UNL     1      57.818  18.992  23.561  0.00  0.00    +0.000 HD
ENDBRANCH  14  15
ENDBRANCH   3  14
TORSDOF 7
