REMARK  Name = 6nrh_ligand
REMARK  4 active torsions:
REMARK  status: ('A' for Active; 'I' for Inactive)
REMARK    1  A    between atoms: C_2  and  C_15
REMARK    2  A    between atoms: C_20  and  C_21
REMARK    3  A    between atoms: C_21  and  C_22
REMARK    4  A    between atoms: C_27  and  C_28
REMARK                            x       y       z     vdW  Elec       q    Type
REMARK                         _______ _______ _______ _____ _____    ______ ____
ROOT
ATOM      1  C   UNL     1      24.561  -9.624   6.202  0.00  0.00    +0.000 A 
ATOM      2  C   UNL     1      24.380  -8.719   7.244  0.00  0.00    +0.000 A 
ATOM      3  C   UNL     1      25.374  -7.814   7.577  0.00  0.00    +0.000 A 
ATOM      4  C   UNL     1      25.763  -9.593   5.502  0.00  0.00    +0.000 A 
ATOM      5  C   UNL     1      26.760  -8.696   5.847  0.00  0.00    +0.000 A 
ATOM      6  C   UNL     1      26.594  -7.799   6.894  0.00  0.00    +0.000 A 
ENDROOT
BRANCH   1   8
ATOM      7  O   UNL     1      23.073 -10.629   4.723  0.00  0.00    +0.000 OA
ATOM      8  C   UNL     1      23.516 -10.637   5.838  0.00  0.00    +0.000 C 
ATOM      9  N   UNL     1      23.115 -11.557   6.745  0.00  0.00    +0.000 N 
ATOM     10  C   UNL     1      22.162 -12.607   6.349  0.00  0.00    +0.000 C 
ATOM     11  C   UNL     1      21.008 -12.667   7.320  0.00  0.00    +0.000 C 
ATOM     12  N   UNL     1      21.521 -12.877   8.676  0.00  0.00    +0.000 N 
ATOM     13  C   UNL     1      21.127 -13.891   9.486  0.00  0.00    +0.000 A 
ATOM     14  N   UNL     1      20.289 -14.804   8.951  0.00  0.00    +0.000 NA
ATOM     15  C   UNL     1      19.958 -15.821   9.759  0.00  0.00    +0.000 A 
ATOM     16  C   UNL     1      20.424 -15.950  11.047  0.00  0.00    +0.000 A 
ATOM     17  C   UNL     1      21.258 -14.945  11.496  0.00  0.00    +0.000 A 
ATOM     18  N   UNL     1      21.629 -13.898  10.742  0.00  0.00    +0.000 NA
ATOM     19  C   UNL     1      22.435 -11.807   9.085  0.00  0.00    +0.000 C 
ATOM     20  C   UNL     1      23.592 -11.715   8.128  0.00  0.00    +0.000 C 
ENDBRANCH   1   8
BRANCH   6  21
ATOM     21  C   UNL     1      27.746  -6.995   7.274  0.00  0.00    +0.000 C 
BRANCH  21  22
ATOM     22  C   UNL     1      27.850  -5.932   8.077  0.00  0.00    +0.000 C 
ATOM     23  C   UNL     1      28.881  -4.906   7.998  0.00  0.00    +0.000 C 
ATOM     24  O   UNL     1      29.721  -4.740   7.053  0.00  0.00    +0.000 OA
ATOM     25  O   UNL     1      27.082  -5.734   9.216  0.00  0.00    +0.000 OA
ATOM     26  C   UNL     1      27.576  -4.628   9.870  0.00  0.00    +0.000 A 
ATOM     27  C   UNL     1      27.156  -4.091  11.084  0.00  0.00    +0.000 A 
ATOM     28  C   UNL     1      28.684  -4.108   9.199  0.00  0.00    +0.000 A 
ATOM     29  C   UNL     1      29.433  -3.075   9.758  0.00  0.00    +0.000 A 
ATOM     30  C   UNL     1      29.041  -2.562  10.978  0.00  0.00    +0.000 A 
ATOM     31  C   UNL     1      27.916  -3.052  11.630  0.00  0.00    +0.000 A 
BRANCH  27  32
ATOM     32  C   UNL     1      25.917  -4.518  11.822  0.00  0.00    +0.000 C 
ATOM     33  O   UNL     1      25.471  -3.820  12.775  0.00  0.00    +0.000 OA
ATOM     34  N   UNL     1      25.271  -5.620  11.388  0.00  0.00    +0.000 N 
ATOM     35  H   UNL     1      24.399  -5.908  11.832  0.00  0.00    +0.000 HD
ATOM     36  H   UNL     1      25.654  -6.165  10.616  0.00  0.00    +0.000 HD
ENDBRANCH  27  32
ENDBRANCH  21  22
ENDBRANCH   6  21
TORSDOF 4
