REMARK  Name = 6e6w_ligand
REMARK  6 active torsions:
REMARK  status: ('A' for Active; 'I' for Inactive)
REMARK    1  A    between atoms: O_1  and  C_2
REMARK    2  A    between atoms: C_2  and  CA_4
REMARK    3  A    between atoms: C_6  and  O_7
REMARK    4  A    between atoms: C_11  and  C_12
REMARK    5  A    between atoms: C_13  and  C_14
REMARK    6  A    between atoms: C_18  and  C_19
REMARK                            x       y       z     vdW  Elec       q    Type
REMARK                         _______ _______ _______ _____ _____    ______ ____
ROOT
ATOM      1  CA  UNL     1     -19.564  16.847 134.679  0.00  0.00    +0.000 C 
ATOM      2  N   UNL     1     -20.571  17.069 135.616  0.00  0.00    +0.000 NA
ATOM      3  C   UNL     1     -19.772  17.178 133.340  0.00  0.00    +0.000 C 
ATOM      4  C   UNL     1     -20.963  17.745 132.902  0.00  0.00    +0.000 C 
ATOM      5  O   UNL     1     -21.184  18.054 131.714  0.00  0.00    +0.000 OA
ATOM      6  C   UNL     1     -21.953  17.959 133.860  0.00  0.00    +0.000 C 
ATOM      7  C   UNL     1     -21.772  17.608 135.197  0.00  0.00    +0.000 C 
ENDROOT
BRANCH   7   8
ATOM      8  C   UNL     1     -22.826  17.856 136.069  0.00  0.00    +0.000 A 
ATOM      9  C   UNL     1     -24.078  17.201 135.901  0.00  0.00    +0.000 A 
ATOM     10  C   UNL     1     -24.358  16.243 134.889  0.00  0.00    +0.000 C 
ATOM     11  C   UNL     1     -25.119  17.516 136.749  0.00  0.00    +0.000 A 
ATOM     12  C   UNL     1     -22.636  18.802 137.080  0.00  0.00    +0.000 A 
ATOM     13  C   UNL     1     -23.693  19.096 137.940  0.00  0.00    +0.000 A 
ATOM     14  C   UNL     1     -24.933  18.442 137.772  0.00  0.00    +0.000 A 
BRANCH  14  15
ATOM     15  C   UNL     1     -25.976  18.713 138.535  0.00  0.00    +0.000 A 
ATOM     16  N   UNL     1     -27.244  18.465 138.158  0.00  0.00    +0.000 NA
ATOM     17  N   UNL     1     -27.952  18.877 139.045  0.00  0.00    +0.000 NA
ATOM     18  N   UNL     1     -27.171  19.403 140.019  0.00  0.00    +0.000 NA
ATOM     19  N   UNL     1     -25.949  19.321 139.720  0.00  0.00    +0.000 NA
ENDBRANCH  14  15
ENDBRANCH   7   8
BRANCH   1  20
ATOM     20  C   UNL     1     -18.407  16.350 135.241  0.00  0.00    +0.000 C 
ATOM     21  OXT UNL     1     -18.394  16.399 136.460  0.00  0.00    +0.000 OA
BRANCH  20  22
ATOM     22  O   UNL     1     -17.351  16.053 134.611  0.00  0.00    +0.000 OA
ATOM     23  H   UNL     1     -17.530  16.058 133.668  0.00  0.00    +0.000 HD
ENDBRANCH  20  22
ENDBRANCH   1  20
BRANCH   3  24
ATOM     24  O   UNL     1     -18.815  16.966 132.439  0.00  0.00    +0.000 OA
ATOM     25  H   UNL     1     -18.052  16.574 132.870  0.00  0.00    +0.000 HD
ENDBRANCH   3  24
TORSDOF 5
