REMARK  Name = 6i61_ligand
REMARK  7 active torsions:
REMARK  status: ('A' for Active; 'I' for Inactive)
REMARK    1  A    between atoms: C_1  and  C_11
REMARK    2  A    between atoms: C_2  and  C_16
REMARK    3  A    between atoms: C_11  and  C_16
REMARK    4  A    between atoms: C_12  and  O_17
REMARK    5  A    between atoms: C_13  and  O_18
REMARK    6  A    between atoms: C_14  and  C_16
REMARK    7  A    between atoms: C_15  and  C_16
REMARK                            x       y       z     vdW  Elec       q    Type
REMARK                         _______ _______ _______ _____ _____    ______ ____
ROOT
ATOM      1  C   UNL     1     -18.109  -2.657 -26.407  0.00  0.00    +0.000 C 
ATOM      2  C   UNL     1     -16.701  -3.015 -26.921  0.00  0.00    +0.000 C 
ENDROOT
BRANCH   2   8
ATOM      3  C   UNL     1     -15.563  -1.922 -30.355  0.00  0.00    +0.000 A 
ATOM      4  C   UNL     1     -17.734  -2.926 -30.495  0.00  0.00    +0.000 A 
ATOM      5  C   UNL     1     -15.567  -2.150 -28.977  0.00  0.00    +0.000 A 
ATOM      6  C   UNL     1     -17.738  -3.150 -29.118  0.00  0.00    +0.000 A 
ATOM      7  C   UNL     1     -16.654  -2.315 -31.121  0.00  0.00    +0.000 A 
ATOM      8  C   UNL     1     -16.654  -2.758 -28.328  0.00  0.00    +0.000 A 
BRANCH   7   9
ATOM      9  O   UNL     1     -16.664  -2.111 -32.469  0.00  0.00    +0.000 OA
ATOM     10  H   UNL     1     -17.488  -2.441 -32.835  0.00  0.00    +0.000 HD
ENDBRANCH   7   9
ENDBRANCH   2   8
BRANCH   2  16
ATOM     11  C   UNL     1     -16.876  -6.434 -25.383  0.00  0.00    +0.000 A 
ATOM     12  C   UNL     1     -15.040  -6.314 -26.941  0.00  0.00    +0.000 A 
ATOM     13  C   UNL     1     -17.179  -5.107 -25.694  0.00  0.00    +0.000 A 
ATOM     14  C   UNL     1     -15.351  -4.997 -27.244  0.00  0.00    +0.000 A 
ATOM     15  C   UNL     1     -15.798  -7.048 -26.024  0.00  0.00    +0.000 A 
ATOM     16  C   UNL     1     -16.424  -4.369 -26.619  0.00  0.00    +0.000 A 
BRANCH  15  17
ATOM     17  O   UNL     1     -15.463  -8.350 -25.745  0.00  0.00    +0.000 OA
ATOM     18  H   UNL     1     -14.703  -8.604 -26.274  0.00  0.00    +0.000 HD
ENDBRANCH  15  17
ENDBRANCH   2  16
BRANCH   2  20
ATOM     19  C   UNL     1     -16.031  -0.649 -26.101  0.00  0.00    +0.000 C 
ATOM     20  C   UNL     1     -15.735  -2.163 -26.064  0.00  0.00    +0.000 C 
ENDBRANCH   2  20
TORSDOF 5
