REMARK  Name = 6qxd_ligand
REMARK  5 active torsions:
REMARK  status: ('A' for Active; 'I' for Inactive)
REMARK    1  A    between atoms: C_3  and  C_7
REMARK    2  A    between atoms: C_7  and  N_8
REMARK    3  A    between atoms: C_14  and  C_15
REMARK    4  A    between atoms: C_17  and  N_25
REMARK    5  A    between atoms: C_18  and  N_22
REMARK                            x       y       z     vdW  Elec       q    Type
REMARK                         _______ _______ _______ _____ _____    ______ ____
ROOT
ATOM      1  N   UNL     1      27.819  18.631  95.744  0.00  0.00    +0.000 N 
ATOM      2  C   UNL     1      29.448  19.500  94.332  0.00  0.00    +0.000 C 
ATOM      3  C   UNL     1      28.280  19.790  95.240  0.00  0.00    +0.000 C 
ATOM      4  N   UNL     1      30.432  18.868  95.203  0.00  0.00    +0.000 N 
ATOM      5  C   UNL     1      30.062  17.729  96.026  0.00  0.00    +0.000 C 
ATOM      6  C   UNL     1      28.632  17.921  96.543  0.00  0.00    +0.000 C 
ATOM      7  C   UNL     1      31.802  19.424  95.197  0.00  0.00    +0.000 C 
ATOM      8  O   UNL     1      31.994  20.374  94.500  0.00  0.00    +0.000 OA
ATOM      9  H   UNL     1      27.692  18.035  94.926  0.00  0.00    +0.000 HD
ENDROOT
BRANCH   7  10
ATOM     10  C   UNL     1      32.993  18.966  96.101  0.00  0.00    +0.000 A 
ATOM     11  C   UNL     1      33.773  18.428  98.340  0.00  0.00    +0.000 A 
ATOM     12  C   UNL     1      32.750  18.775  97.472  0.00  0.00    +0.000 A 
ATOM     13  C   UNL     1      35.055  18.284  97.864  0.00  0.00    +0.000 A 
ATOM     14  C   UNL     1      35.328  18.496  96.497  0.00  0.00    +0.000 A 
ATOM     15  C   UNL     1      34.291  18.850  95.613  0.00  0.00    +0.000 A 
BRANCH  13  16
ATOM     16  N   UNL     1      36.059  17.931  98.890  0.00  0.00    +0.000 N 
ATOM     17  O   UNL     1      35.663  18.045 100.236  0.00  0.00    +0.000 OA
ATOM     18  O   UNL     1      37.166  17.596  98.628  0.00  0.00    +0.000 OA
ENDBRANCH  13  16
BRANCH  12  19
ATOM     19  N   UNL     1      31.481  18.907  98.042  0.00  0.00    +0.000 N 
ATOM     20  O   UNL     1      30.961  17.842  98.755  0.00  0.00    +0.000 OA
ATOM     21  O   UNL     1      30.906  19.897  97.949  0.00  0.00    +0.000 OA
ENDBRANCH  12  19
ENDBRANCH   7  10
BRANCH   1  22
ATOM     22  C   UNL     1      26.768  18.886  96.392  0.00  0.00    +0.000 C 
BRANCH  22  25
ATOM     23  C   UNL     1      24.464  17.873  96.316  0.00  0.00    +0.000 A 
ATOM     24  C   UNL     1      23.560  16.780  96.157  0.00  0.00    +0.000 A 
ATOM     25  C   UNL     1      25.814  17.670  96.213  0.00  0.00    +0.000 A 
ATOM     26  C   UNL     1      24.074  15.479  95.901  0.00  0.00    +0.000 A 
ATOM     27  C   UNL     1      26.325  16.359  95.947  0.00  0.00    +0.000 A 
ATOM     28  C   UNL     1      25.425  15.267  95.790  0.00  0.00    +0.000 A 
ATOM     29  F   UNL     1      23.220  14.481  95.763  0.00  0.00    +0.000 F 
ENDBRANCH  22  25
ENDBRANCH   1  22
TORSDOF 5
