REMARK  Name = 6pgp_ligand
REMARK  8 active torsions:
REMARK  status: ('A' for Active; 'I' for Inactive)
REMARK    1  A    between atoms: C_1  and  C_2
REMARK    2  A    between atoms: C_2  and  C_3
REMARK    3  A    between atoms: C_2  and  C_4
REMARK    4  A    between atoms: C_9  and  N_10
REMARK    5  A    between atoms: C_23  and  C_25
REMARK    6  A    between atoms: C_25  and  C_26
REMARK    7  A    between atoms: C_31  and  C_32
REMARK    8  A    between atoms: C_38  and  O_39
REMARK                            x       y       z     vdW  Elec       q    Type
REMARK                         _______ _______ _______ _____ _____    ______ ____
ROOT
ATOM      1  N   UNL     1       2.256   0.308 -11.433  0.00  0.00    +0.000 N 
ATOM      2  C   UNL     1       2.713   0.480 -10.113  0.00  0.00    +0.000 A 
ATOM      3  C   UNL     1       3.501   1.583  -9.776  0.00  0.00    +0.000 A 
ATOM      4  C   UNL     1       1.461  -0.789 -11.746  0.00  0.00    +0.000 A 
ATOM      5  O   UNL     1       1.060  -0.928 -12.905  0.00  0.00    +0.000 OA
ATOM      6  N   UNL     1       1.147  -1.690 -10.804  0.00  0.00    +0.000 NA
ATOM      7  C   UNL     1       1.564  -1.569  -9.528  0.00  0.00    +0.000 A 
ATOM      8  N   UNL     1       1.181  -2.593  -8.652  0.00  0.00    +0.000 N 
ATOM      9  C   UNL     1       2.094  -3.013  -7.579  0.00  0.00    +0.000 C 
ATOM     10  C   UNL     1       2.061  -4.514  -7.355  0.00  0.00    +0.000 C 
ATOM     11  C   UNL     1      -0.037  -3.385  -8.953  0.00  0.00    +0.000 C 
ATOM     12  C   UNL     1      -0.479  -4.256  -7.788  0.00  0.00    +0.000 C 
ATOM     13  N   UNL     1       0.659  -4.985  -7.169  0.00  0.00    +0.000 N 
ATOM     14  C   UNL     1       0.437  -6.074  -6.433  0.00  0.00    +0.000 C 
ATOM     15  O   UNL     1       1.380  -6.680  -5.924  0.00  0.00    +0.000 OA
ATOM     16  C   UNL     1       2.363  -0.469  -9.152  0.00  0.00    +0.000 A 
ATOM     17  C   UNL     1       2.829  -0.281  -7.855  0.00  0.00    +0.000 A 
ATOM     18  C   UNL     1       3.611   0.829  -7.521  0.00  0.00    +0.000 A 
ATOM     19 CL   UNL     1       4.136   0.994  -5.889  0.00  0.00    +0.000 Cl
ATOM     20  C   UNL     1       3.966   1.781  -8.482  0.00  0.00    +0.000 A 
ENDROOT
BRANCH  20  21
ATOM     21  C   UNL     1       4.769   2.910  -8.221  0.00  0.00    +0.000 A 
ATOM     22  C   UNL     1       6.129   2.763  -7.896  0.00  0.00    +0.000 A 
ATOM     23  F   UNL     1       6.692   1.545  -7.787  0.00  0.00    +0.000 F 
ATOM     24  C   UNL     1       6.927   3.883  -7.650  0.00  0.00    +0.000 A 
ATOM     25  C   UNL     1       6.394   5.160  -7.751  0.00  0.00    +0.000 A 
ATOM     26  C   UNL     1       5.052   5.322  -8.086  0.00  0.00    +0.000 A 
ATOM     27  C   UNL     1       4.252   4.204  -8.329  0.00  0.00    +0.000 A 
BRANCH  27  28
ATOM     28  O   UNL     1       2.951   4.390  -8.660  0.00  0.00    +0.000 OA
ATOM     29  H   UNL     1       2.761   5.330  -8.691  0.00  0.00    +0.000 HD
ENDBRANCH  27  28
ENDBRANCH  20  21
BRANCH   1  35
ATOM     30  C   UNL     1       3.598   1.076 -13.331  0.00  0.00    +0.000 A 
ATOM     31  C   UNL     1       3.844   2.060 -14.299  0.00  0.00    +0.000 A 
ATOM     32  C   UNL     1       3.030   3.185 -14.365  0.00  0.00    +0.000 A 
ATOM     33  C   UNL     1       1.978   3.359 -13.473  0.00  0.00    +0.000 A 
ATOM     34  C   UNL     1       1.739   2.385 -12.507  0.00  0.00    +0.000 A 
ATOM     35  C   UNL     1       2.547   1.252 -12.441  0.00  0.00    +0.000 A 
BRANCH  30  37
ATOM     36  C   UNL     1       5.907   0.271 -12.914  0.00  0.00    +0.000 C 
ATOM     37  C   UNL     1       4.484  -0.181 -13.218  0.00  0.00    +0.000 C 
ATOM     38  C   UNL     1       4.436  -1.011 -14.516  0.00  0.00    +0.000 C 
ENDBRANCH  30  37
ENDBRANCH   1  35
BRANCH  14  39
ATOM     39  C   UNL     1      -0.989  -6.590  -6.241  0.00  0.00    +0.000 C 
ATOM     40  C   UNL     1      -1.163  -7.909  -6.992  0.00  0.00    +0.000 C 
ENDBRANCH  14  39
TORSDOF 5
