REMARK  Name = 6qqq_ligand
REMARK  7 active torsions:
REMARK  status: ('A' for Active; 'I' for Inactive)
REMARK    1  A    between atoms: C_5  and  C_20
REMARK    2  A    between atoms: C_9  and  O_10
REMARK    3  A    between atoms: O_10  and  C_11
REMARK    4  A    between atoms: C_13  and  C_14
REMARK    5  A    between atoms: C_14  and  O_15
REMARK    6  A    between atoms: O_15  and  C_16
REMARK    7  A    between atoms: C_16  and  C_17
REMARK                            x       y       z     vdW  Elec       q    Type
REMARK                         _______ _______ _______ _____ _____    ______ ____
ROOT
ATOM      1  C   UNL     1     -22.547 -21.580  10.659  0.00  0.00    +0.000 A 
ATOM      2  C   UNL     1     -24.304 -20.276   8.932  0.00  0.00    +0.000 A 
ATOM      3  C   UNL     1     -24.156 -19.784  10.159  0.00  0.00    +0.000 A 
ATOM      4  C   UNL     1     -23.263 -20.413  11.064  0.00  0.00    +0.000 A 
ATOM      5  C   UNL     1     -22.700 -22.077   9.429  0.00  0.00    +0.000 A 
ATOM      6  C   UNL     1     -23.558 -21.454   8.533  0.00  0.00    +0.000 A 
ENDROOT
BRANCH   5   7
ATOM      7  C   UNL     1     -21.909 -23.329   9.016  0.00  0.00    +0.000 A 
ATOM      8  C   UNL     1     -20.490 -25.533   8.202  0.00  0.00    +0.000 A 
ATOM      9  C   UNL     1     -20.807 -25.415   9.559  0.00  0.00    +0.000 A 
ATOM     10  C   UNL     1     -21.533 -24.287   9.988  0.00  0.00    +0.000 A 
ATOM     11  C   UNL     1     -21.548 -23.533   7.686  0.00  0.00    +0.000 A 
ATOM     12  N   UNL     1     -20.858 -24.614   7.324  0.00  0.00    +0.000 NA
ENDBRANCH   5   7
BRANCH   2  14
ATOM     13  C   UNL     1     -26.269 -18.936   8.523  0.00  0.00    +0.000 C 
ATOM     14  O   UNL     1     -25.136 -19.704   8.009  0.00  0.00    +0.000 OA
ENDBRANCH   2  14
BRANCH   4  15
ATOM     15  C   UNL     1     -23.051 -19.909  12.446  0.00  0.00    +0.000 C 
BRANCH  15  16
ATOM     16  O   UNL     1     -22.146 -18.803  12.463  0.00  0.00    +0.000 OA
BRANCH  16  17
ATOM     17  C   UNL     1     -20.737 -19.082  12.617  0.00  0.00    +0.000 C 
ATOM     18  O   UNL     1     -20.291 -20.261  12.684  0.00  0.00    +0.000 OA
BRANCH  17  22
ATOM     19  C   UNL     1     -18.438 -17.946  12.608  0.00  0.00    +0.000 A 
ATOM     20  N   UNL     1     -19.022 -15.829  12.785  0.00  0.00    +0.000 NA
ATOM     21  C   UNL     1     -20.144 -16.556  12.775  0.00  0.00    +0.000 A 
ATOM     22  C   UNL     1     -19.771 -17.897  12.661  0.00  0.00    +0.000 A 
ATOM     23  N   UNL     1     -18.007 -16.673  12.670  0.00  0.00    +0.000 NA
ENDBRANCH  17  22
ENDBRANCH  16  17
ENDBRANCH  15  16
ENDBRANCH   4  15
TORSDOF 6
