REMARK  Name = 6agt_ligand
REMARK  3 active torsions:
REMARK  status: ('A' for Active; 'I' for Inactive)
REMARK    1  A    between atoms: C_2  and  C_3
REMARK    2  A    between atoms: C_3  and  N_9
REMARK    3  A    between atoms: C_10  and  C_12
REMARK                            x       y       z     vdW  Elec       q    Type
REMARK                         _______ _______ _______ _____ _____    ______ ____
ROOT
ATOM      1  N   UNL     1      -5.204  -0.748  28.693  0.00  0.00    +0.000 N 
ATOM      2  C   UNL     1      -5.734  -1.935  28.680  0.00  0.00    +0.000 C 
ATOM      3  O   UNL     1      -6.027  -2.463  27.651  0.00  0.00    +0.000 OA
ATOM      4  H   UNL     1      -4.985  -0.355  29.608  0.00  0.00    +0.000 HD
ENDROOT
BRANCH   2   6
ATOM      5  C   UNL     1      -5.665  -2.551  32.206  0.00  0.00    +0.000 A 
ATOM      6  C   UNL     1      -5.966  -2.576  29.907  0.00  0.00    +0.000 A 
ATOM      7  O   UNL     1      -5.570  -1.983  31.034  0.00  0.00    +0.000 OA
ATOM      8  C   UNL     1      -5.227  -1.874  33.312  0.00  0.00    +0.000 A 
ATOM      9  C   UNL     1      -5.320  -2.443  34.541  0.00  0.00    +0.000 A 
ATOM     10  C   UNL     1      -5.889  -3.684  34.644  0.00  0.00    +0.000 A 
ATOM     11  C   UNL     1      -6.341  -4.340  33.533  0.00  0.00    +0.000 A 
ATOM     12  C   UNL     1      -6.242  -3.780  32.301  0.00  0.00    +0.000 A 
ATOM     13  C   UNL     1      -6.663  -4.445  31.184  0.00  0.00    +0.000 A 
ATOM     14  O   UNL     1      -7.134  -5.552  31.257  0.00  0.00    +0.000 OA
ATOM     15  C   UNL     1      -6.518  -3.829  29.970  0.00  0.00    +0.000 A 
ENDBRANCH   2   6
BRANCH   1  16
ATOM     16  C   UNL     1      -4.900   0.053  27.571  0.00  0.00    +0.000 C 
BRANCH  16  17
ATOM     17  C   UNL     1      -3.398   0.296  27.643  0.00  0.00    +0.000 C 
ATOM     18  C   UNL     1      -2.650  -1.007  27.748  0.00  0.00    +0.000 C 
ATOM     19  C   UNL     1      -1.204  -0.752  27.936  0.00  0.00    +0.000 C 
ATOM     20  C   UNL     1      -0.701   0.029  26.768  0.00  0.00    +0.000 C 
ATOM     21  C   UNL     1      -1.524   1.311  26.694  0.00  0.00    +0.000 C 
ATOM     22  C   UNL     1      -2.935   0.993  26.462  0.00  0.00    +0.000 C 
ENDBRANCH  16  17
ENDBRANCH   1  16
TORSDOF 3
