REMARK  Name = 6hmt_ligand
REMARK  22 active torsions:
REMARK  status: ('A' for Active; 'I' for Inactive)
REMARK    1  A    between atoms: N_1  and  CA_2
REMARK    2  A    between atoms: CA_2  and  C_3
REMARK    3  A    between atoms: CA_2  and  CB_5
REMARK    4  A    between atoms: CB_5  and  CG_6
REMARK    5  A    between atoms: CA_13  and  C_14
REMARK    6  A    between atoms: N_19  and  CA_20
REMARK    7  A    between atoms: CA_20  and  C_21
REMARK    8  A    between atoms: CA_20  and  CB_23
REMARK    9  A    between atoms: N_24  and  C_25
REMARK   10  A    between atoms: C_25  and  C_26
REMARK   11  A    between atoms: C_25  and  C_33
REMARK   12  A    between atoms: C_26  and  C_27
REMARK   13  A    between atoms: C_26  and  O_28
REMARK   14  A    between atoms: O_28  and  P_29
REMARK   15  A    between atoms: P_29  and  O_30
REMARK   16  A    between atoms: P_29  and  O_32
REMARK   17  A    between atoms: N_35  and  CA_36
REMARK   18  A    between atoms: CA_36  and  C_37
REMARK   19  A    between atoms: CA_36  and  CB_39
REMARK   20  A    between atoms: C_37  and  OXT_42
REMARK   21  A    between atoms: CB_39  and  CG1_40
REMARK   22  A    between atoms: CB_39  and  CG2_41
REMARK                            x       y       z     vdW  Elec       q    Type
REMARK                         _______ _______ _______ _____ _____    ______ ____
ROOT
ATOM      1  C   ALA A   3      14.414  15.380  10.157  0.00  0.00    +0.000 C 
ATOM      2  O   ALA A   3      14.361  16.363  10.902  0.00  0.00    +0.000 OA
ATOM      3  N   UNK A   4      15.415  15.141   9.312  0.00  0.00    +0.000 N 
ATOM      4  H   UNK A   4      15.435  14.241   8.832  0.00  0.00    +0.000 HD
ENDROOT
BRANCH   1   5
ATOM      5  CA  ALA A   3      13.280  14.357  10.161  0.00  0.00    +0.000 C 
ATOM      6  CB  ALA A   3      12.102  14.889   9.361  0.00  0.00    +0.000 C 
BRANCH   5   9
ATOM      7  C   PRO A   2      13.532  13.146  12.262  0.00  0.00    +0.000 C 
ATOM      8  O   PRO A   2      14.594  12.638  11.901  0.00  0.00    +0.000 OA
ATOM      9  N   ALA A   3      12.850  14.009  11.509  0.00  0.00    +0.000 N 
ATOM     10  H   ALA A   3      12.005  14.437  11.886  0.00  0.00    +0.000 HD
BRANCH   7  14
ATOM     11  C   PHE A   1      13.109  10.421  13.722  0.00  0.00    +0.000 C 
ATOM     12  O   PHE A   1      12.273  10.284  12.827  0.00  0.00    +0.000 OA
ATOM     13  N   PRO A   2      13.467  11.612  14.192  0.00  0.00    +0.000 N 
ATOM     14  CA  PRO A   2      12.905  12.835  13.614  0.00  0.00    +0.000 C 
ATOM     15  CB  PRO A   2      13.284  13.902  14.645  0.00  0.00    +0.000 C 
ATOM     16  CG  PRO A   2      14.574  13.403  15.216  0.00  0.00    +0.000 C 
ATOM     17  CD  PRO A   2      14.433  11.901  15.268  0.00  0.00    +0.000 C 
BRANCH  11  18
ATOM     18  CA  PHE A   1      13.779   9.198  14.347  0.00  0.00    +0.000 C 
BRANCH  18  19
ATOM     19  N   PHE A   1      12.892   8.039  14.307  0.00  0.00    +0.000 N 
ATOM     20  H1  PHE A   1      12.019   8.264  14.783  0.00  0.00    +0.000 HD
ATOM     21  H2  PHE A   1      12.698   7.794  13.336  0.00  0.00    +0.000 HD
ATOM     22  H3  PHE A   1      13.342   7.252  14.774  0.00  0.00    +0.000 HD
ENDBRANCH  18  19
BRANCH  18  23
ATOM     23  CB  PHE A   1      15.104   8.890  13.637  0.00  0.00    +0.000 C 
BRANCH  23  24
ATOM     24  CG  PHE A   1      14.939   8.292  12.266  0.00  0.00    +0.000 A 
ATOM     25  CD1 PHE A   1      14.797   9.103  11.150  0.00  0.00    +0.000 A 
ATOM     26  CD2 PHE A   1      14.935   6.916  12.092  0.00  0.00    +0.000 A 
ATOM     27  CE1 PHE A   1      14.647   8.551   9.888  0.00  0.00    +0.000 A 
ATOM     28  CE2 PHE A   1      14.785   6.360  10.835  0.00  0.00    +0.000 A 
ATOM     29  CZ  PHE A   1      14.642   7.176   9.732  0.00  0.00    +0.000 A 
ENDBRANCH  23  24
ENDBRANCH  18  23
ENDBRANCH  11  18
ENDBRANCH   7  14
ENDBRANCH   5   9
ENDBRANCH   1   5
BRANCH   3  30
ATOM     30  C   UNK A   4      16.489  16.098   9.032  0.00  0.00    +0.000 C 
BRANCH  30  31
ATOM     31  C   UNK A   4      16.749  16.118   7.524  0.00  0.00    +0.000 C 
ATOM     32  O   UNK A   4      16.438  15.147   6.825  0.00  0.00    +0.000 OA
ATOM     33  N   VAL A   5      17.309  17.208   7.014  0.00  0.00    +0.000 N 
ATOM     34  H   VAL A   5      17.538  17.985   7.634  0.00  0.00    +0.000 HD
BRANCH  33  35
ATOM     35  CA  VAL A   5      17.607  17.326   5.585  0.00  0.00    +0.000 C 
BRANCH  35  36
ATOM     36  CB  VAL A   5      16.676  18.329   4.861  0.00  0.00    +0.000 C 
ATOM     37  CG1 VAL A   5      15.241  17.895   4.953  0.00  0.00    +0.000 C 
ATOM     38  CG2 VAL A   5      16.865  19.734   5.417  0.00  0.00    +0.000 C 
ENDBRANCH  35  36
BRANCH  35  39
ATOM     39  C   VAL A   5      19.053  17.703   5.343  0.00  0.00    +0.000 C 
ATOM     40  O   VAL A   5      19.813  17.997   6.275  0.00  0.00    +0.000 OA
BRANCH  39  41
ATOM     41  OXT VAL A   5      19.480  17.727   4.181  0.00  0.00    +0.000 OA
ATOM     42  HXT VAL A   5      18.777  17.477   3.578  0.00  0.00    +0.000 HD
ENDBRANCH  39  41
ENDBRANCH  35  39
ENDBRANCH  33  35
ENDBRANCH  30  31
BRANCH  30  43
ATOM     43  C   UNK A   4      17.775  15.734   9.796  0.00  0.00    +0.000 C 
ATOM     44  C   UNK A   4      17.581  15.930  11.298  0.00  0.00    +0.000 C 
BRANCH  43  45
ATOM     45  O   UNK A   4      18.020  14.355   9.470  0.00  0.00    +0.000 OA
BRANCH  45  46
ATOM     46  P   UNK A   4      19.435  13.698   9.889  0.00  0.00    +0.000 P 
ATOM     47  O   UNK A   4      19.469  13.373  11.337  0.00  0.00    +0.000 OA
BRANCH  46  48
ATOM     48  O   UNK A   4      20.582  14.734   9.526  0.00  0.00    +0.000 OA
ATOM     49  H   UNK A   4      20.546  14.933   8.588  0.00  0.00    +0.000 HD
ENDBRANCH  46  48
BRANCH  46  50
ATOM     50  O   UNK A   4      19.524  12.398   8.992  0.00  0.00    +0.000 OA
ATOM     51  H   UNK A   4      19.499  12.648   8.065  0.00  0.00    +0.000 HD
ENDBRANCH  46  50
ENDBRANCH  45  46
ENDBRANCH  43  45
ENDBRANCH  30  43
ENDBRANCH   3  30
TORSDOF 18
