REMARK  Name = 6ftf_ligand
REMARK  6 active torsions:
REMARK  status: ('A' for Active; 'I' for Inactive)
REMARK    1  A    between atoms: C1*_1  and  N_2
REMARK    2  A    between atoms: O2*_6  and  C2*_17
REMARK    3  A    between atoms: O3*_9  and  C3*_18
REMARK    4  A    between atoms: C_14  and  C_16
REMARK    5  A    between atoms: C4*_19  and  C5*_20
REMARK    6  A    between atoms: C5*_20  and  O5*_21
REMARK                            x       y       z     vdW  Elec       q    Type
REMARK                         _______ _______ _______ _____ _____    ______ ____
ROOT
ATOM      1  N   UNL     1     -24.315  96.824  51.703  0.00  0.00    +0.000 N 
ATOM      2  C   UNL     1     -24.422  96.905  50.388  0.00  0.00    +0.000 A 
ATOM      3  N   UNL     1     -25.501  97.222  49.632  0.00  0.00    +0.000 NA
ATOM      4  C   UNL     1     -25.328  97.329  48.299  0.00  0.00    +0.000 A 
ATOM      5  N   UNL     1     -24.094  97.026  47.703  0.00  0.00    +0.000 N 
ATOM      6  C   UNL     1     -23.004  96.666  48.449  0.00  0.00    +0.000 A 
ATOM      7  C   UNL     1     -23.127  96.624  49.854  0.00  0.00    +0.000 A 
ATOM      8  O   UNL     1     -21.947  96.370  47.821  0.00  0.00    +0.000 OA
ATOM      9  C   UNL     1     -22.238  96.349  50.977  0.00  0.00    +0.000 A 
ATOM     10  C   UNL     1     -23.054  96.506  52.088  0.00  0.00    +0.000 A 
ATOM     11  H   UNL     1     -24.007  97.075  46.688  0.00  0.00    +0.000 HD
ENDROOT
BRANCH   1  12
ATOM     12  C1* UNL     1     -25.465  97.038  52.660  0.00  0.00    +0.000 C 
ATOM     13  O4* UNL     1     -24.982  97.599  53.861  0.00  0.00    +0.000 OA
ATOM     14  C2* UNL     1     -26.121  95.756  53.041  0.00  0.00    +0.000 C 
ATOM     15  C3* UNL     1     -25.391  95.367  54.219  0.00  0.00    +0.000 C 
ATOM     16  C4* UNL     1     -25.250  96.721  54.946  0.00  0.00    +0.000 C 
BRANCH  14  17
ATOM     17  O2* UNL     1     -27.466  95.939  53.284  0.00  0.00    +0.000 OA
ATOM     18  H2* UNL     1     -27.905  96.196  52.470  0.00  0.00    +0.000 HD
ENDBRANCH  14  17
BRANCH  15  19
ATOM     19  O3* UNL     1     -26.151  94.415  55.025  0.00  0.00    +0.000 OA
ATOM     20  H3* UNL     1     -25.640  94.175  55.801  0.00  0.00    +0.000 HD
ENDBRANCH  15  19
BRANCH  16  21
ATOM     21  C5* UNL     1     -24.055  96.782  55.980  0.00  0.00    +0.000 C 
BRANCH  21  22
ATOM     22  O5* UNL     1     -22.905  96.258  55.411  0.00  0.00    +0.000 OA
ATOM     23  H5* UNL     1     -22.187  96.300  56.047  0.00  0.00    +0.000 HD
ENDBRANCH  21  22
ENDBRANCH  16  21
ENDBRANCH   1  12
BRANCH   9  25
ATOM     24  N   UNL     1     -19.772  95.673  50.963  0.00  0.00    +0.000 NA
ATOM     25  C   UNL     1     -20.893  95.983  50.961  0.00  0.00    +0.000 C 
ENDBRANCH   9  25
TORSDOF 6
