REMARK  Name = 6mo2_ligand
REMARK  8 active torsions:
REMARK  status: ('A' for Active; 'I' for Inactive)
REMARK    1  A    between atoms: N_1  and  C_2
REMARK    2  A    between atoms: C_2  and  C_3
REMARK    3  A    between atoms: C_6  and  C_9
REMARK    4  A    between atoms: C_12  and  O_13
REMARK    5  A    between atoms: O_13  and  C_14
REMARK    6  A    between atoms: C_14  and  C_15
REMARK    7  A    between atoms: C_22  and  C_23
REMARK    8  A    between atoms: C_26  and  C_29
REMARK                            x       y       z     vdW  Elec       q    Type
REMARK                         _______ _______ _______ _____ _____    ______ ____
ROOT
ATOM      1  C   UNL     1     -57.863  24.842   2.924  0.00  0.00    +0.000 A 
ATOM      2  N   UNL     1     -58.035  26.155   2.515  0.00  0.00    +0.000 NA
ATOM      3  C   UNL     1     -58.201  26.538   1.161  0.00  0.00    +0.000 A 
ATOM      4  C   UNL     1     -58.185  25.569   0.188  0.00  0.00    +0.000 A 
ATOM      5  N   UNL     1     -58.015  24.234   0.561  0.00  0.00    +0.000 NA
ATOM      6  C   UNL     1     -57.907  23.803   1.950  0.00  0.00    +0.000 A 
ENDROOT
BRANCH   1  10
ATOM      7  C   UNL     1     -57.504  24.234   7.149  0.00  0.00    +0.000 A 
ATOM      8  C   UNL     1     -58.503  23.554   6.404  0.00  0.00    +0.000 A 
ATOM      9  C   UNL     1     -58.591  23.691   5.010  0.00  0.00    +0.000 A 
ATOM     10  C   UNL     1     -57.693  24.623   4.398  0.00  0.00    +0.000 A 
ATOM     11  C   UNL     1     -56.706  25.392   5.103  0.00  0.00    +0.000 A 
ATOM     12  C   UNL     1     -56.598  25.202   6.563  0.00  0.00    +0.000 A 
BRANCH   7  13
ATOM     13  C   UNL     1     -57.414  23.962   8.660  0.00  0.00    +0.000 C 
BRANCH  13  14
ATOM     14  N   UNL     1     -56.145  24.507   9.200  0.00  0.00    +0.000 N 
ATOM     15  H   UNL     1     -56.096  24.321  10.202  0.00  0.00    +0.000 HD
ATOM     16  H   UNL     1     -55.357  24.060   8.731  0.00  0.00    +0.000 HD
ATOM     17  H   UNL     1     -56.112  25.513   9.037  0.00  0.00    +0.000 HD
ENDBRANCH  13  14
ENDBRANCH   7  13
ENDBRANCH   1  10
BRANCH   6  18
ATOM     18  C   UNL     1     -57.631  22.305   2.315  0.00  0.00    +0.000 A 
ATOM     19  C   UNL     1     -56.791  21.985   3.421  0.00  0.00    +0.000 A 
ATOM     20  C   UNL     1     -56.472  20.606   3.698  0.00  0.00    +0.000 A 
ATOM     21  C   UNL     1     -57.008  19.552   2.840  0.00  0.00    +0.000 A 
ATOM     22  C   UNL     1     -57.782  19.852   1.688  0.00  0.00    +0.000 A 
ATOM     23  C   UNL     1     -58.079  21.228   1.428  0.00  0.00    +0.000 A 
BRANCH  21  24
ATOM     24  C   UNL     1     -56.584  18.132   3.209  0.00  0.00    +0.000 C 
ATOM     25  C   UNL     1     -56.008  17.211   2.265  0.00  0.00    +0.000 C 
ATOM     26  N   UNL     1     -55.722  16.016   3.001  0.00  0.00    +0.000 NA
ATOM     27  N   UNL     1     -56.086  16.304   4.401  0.00  0.00    +0.000 NA
ATOM     28  C   UNL     1     -56.614  17.589   4.543  0.00  0.00    +0.000 C 
ENDBRANCH  21  24
ENDBRANCH   6  18
BRANCH   4  29
ATOM     29  O   UNL     1     -58.418  25.961  -1.160  0.00  0.00    +0.000 OA
BRANCH  29  30
ATOM     30  C   UNL     1     -58.695  24.754  -2.050  0.00  0.00    +0.000 C 
BRANCH  30  31
ATOM     31  C   UNL     1     -57.461  24.689  -2.979  0.00  0.00    +0.000 C 
ATOM     32  C   UNL     1     -56.950  23.281  -3.478  0.00  0.00    +0.000 C 
ATOM     33  C   UNL     1     -55.909  23.407  -4.615  0.00  0.00    +0.000 C 
ATOM     34  N   UNL     1     -56.445  24.418  -5.641  0.00  0.00    +0.000 N 
ATOM     35  C   UNL     1     -56.585  25.776  -5.020  0.00  0.00    +0.000 C 
ATOM     36  C   UNL     1     -57.820  25.706  -4.078  0.00  0.00    +0.000 C 
ATOM     37  H   UNL     1     -57.361  24.107  -5.965  0.00  0.00    +0.000 HD
ATOM     38  H   UNL     1     -55.790  24.477  -6.420  0.00  0.00    +0.000 HD
ENDBRANCH  30  31
ENDBRANCH  29  30
ENDBRANCH   4  29
TORSDOF 8
