REMARK  Name = 6e7m_ligand
REMARK  10 active torsions:
REMARK  status: ('A' for Active; 'I' for Inactive)
REMARK    1  A    between atoms: C_1  and  C_16
REMARK    2  A    between atoms: C_1  and  C_17
REMARK    3  A    between atoms: C_5  and  C_18
REMARK    4  A    between atoms: C_6  and  C_7
REMARK    5  A    between atoms: C_8  and  C_9
REMARK    6  A    between atoms: C_9  and  C_19
REMARK    7  A    between atoms: C_10  and  C_11
REMARK    8  A    between atoms: C_12  and  C_13
REMARK    9  A    between atoms: C_13  and  C_20
REMARK   10  A    between atoms: C_14  and  C_15
REMARK                            x       y       z     vdW  Elec       q    Type
REMARK                         _______ _______ _______ _____ _____    ______ ____
ROOT
ATOM      1  C   UNL     1      11.364  17.942 -27.219  0.00  0.00    +0.000 C 
ATOM      2  C   UNL     1      10.472  17.300 -26.530  0.00  0.00    +0.000 C 
ENDROOT
BRANCH   1   8
ATOM      3  C   UNL     1      12.975  19.633 -26.236  0.00  0.00    +0.000 C 
ATOM      4  C   UNL     1      14.424  19.721 -25.748  0.00  0.00    +0.000 C 
ATOM      5  C   UNL     1      14.827  18.599 -24.796  0.00  0.00    +0.000 C 
ATOM      6  C   UNL     1      14.496  17.211 -25.322  0.00  0.00    +0.000 C 
ATOM      7  C   UNL     1      13.561  17.215 -26.489  0.00  0.00    +0.000 C 
ATOM      8  C   UNL     1      12.687  18.208 -26.699  0.00  0.00    +0.000 C 
ATOM      9  C   UNL     1      12.756  20.624 -27.384  0.00  0.00    +0.000 C 
ATOM     10  C   UNL     1      12.057  20.014 -25.070  0.00  0.00    +0.000 C 
ATOM     11  C   UNL     1      13.583  15.930 -27.274  0.00  0.00    +0.000 C 
ENDBRANCH   1   8
BRANCH   2  12
ATOM     12  C   UNL     1       9.153  16.881 -26.904  0.00  0.00    +0.000 C 
ATOM     13  C   UNL     1       8.910  15.543 -26.836  0.00  0.00    +0.000 C 
ATOM     14  C   UNL     1       8.166  17.926 -27.355  0.00  0.00    +0.000 C 
BRANCH  13  15
ATOM     15  C   UNL     1       7.698  14.814 -27.090  0.00  0.00    +0.000 C 
ATOM     16  C   UNL     1       7.688  13.497 -27.369  0.00  0.00    +0.000 C 
BRANCH  16  17
ATOM     17  C   UNL     1       6.542  12.650 -27.555  0.00  0.00    +0.000 C 
ATOM     18  C   UNL     1       6.726  11.320 -27.741  0.00  0.00    +0.000 C 
ATOM     19  C   UNL     1       5.717  10.292 -27.876  0.00  0.00    +0.000 C 
ATOM     20  C   UNL     1       5.193  13.283 -27.440  0.00  0.00    +0.000 C 
ENDBRANCH  16  17
ENDBRANCH  13  15
ENDBRANCH   2  12
TORSDOF 4
