REMARK  Name = 6mjq_ligand
REMARK  55 active torsions:
REMARK  status: ('A' for Active; 'I' for Inactive)
REMARK    1  A    between atoms: C_1  and  O_8
REMARK    2  A    between atoms: C_2  and  O_9
REMARK    3  A    between atoms: C_3  and  O_7
REMARK    4  A    between atoms: C_4  and  C_5
REMARK    5  A    between atoms: C_5  and  O_32
REMARK    6  A    between atoms: C_6  and  O_30
REMARK    7  A    between atoms: O_7  and  C_33
REMARK    8  A    between atoms: O_8  and  C_29
REMARK    9  A    between atoms: C_10  and  C_11
REMARK   10  A    between atoms: C_11  and  C_12
REMARK   11  A    between atoms: C_12  and  C_13
REMARK   12  A    between atoms: C_13  and  C_14
REMARK   13  A    between atoms: C_14  and  C_15
REMARK   14  A    between atoms: C_15  and  C_16
REMARK   15  A    between atoms: C_16  and  C_17
REMARK   16  A    between atoms: C_17  and  C_18
REMARK   17  A    between atoms: C_18  and  C_19
REMARK   18  A    between atoms: C_19  and  C_20
REMARK   19  A    between atoms: C_20  and  C_21
REMARK   20  A    between atoms: C_21  and  C_22
REMARK   21  A    between atoms: C_22  and  C_23
REMARK   22  A    between atoms: C_23  and  C_24
REMARK   23  A    between atoms: C_24  and  O_25
REMARK   24  A    between atoms: C_24  and  C_26
REMARK   25  A    between atoms: C_26  and  O_27
REMARK   26  A    between atoms: C_26  and  C_28
REMARK   27  A    between atoms: C_28  and  C_29
REMARK   28  A    between atoms: C_28  and  N_44
REMARK   29  A    between atoms: C_33  and  C_34
REMARK   30  A    between atoms: C_37  and  C_38
REMARK   31  A    between atoms: C_45  and  C_47
REMARK   32  A    between atoms: C_47  and  C_48
REMARK   33  A    between atoms: C_48  and  C_49
REMARK   34  A    between atoms: C_49  and  C_50
REMARK   35  A    between atoms: C_50  and  C_51
REMARK   36  A    between atoms: C_51  and  C_52
REMARK   37  A    between atoms: C_52  and  C_53
REMARK   38  A    between atoms: C_53  and  C_54
REMARK   39  A    between atoms: C_54  and  C_55
REMARK   40  A    between atoms: C_55  and  C_56
REMARK   41  A    between atoms: C_56  and  C_57
REMARK   42  A    between atoms: C_57  and  C_58
REMARK   43  A    between atoms: C_58  and  C_59
REMARK   44  A    between atoms: C_59  and  C_60
REMARK   45  A    between atoms: C_60  and  C_61
REMARK   46  A    between atoms: C_61  and  C_62
REMARK   47  A    between atoms: C_62  and  C_63
REMARK   48  A    between atoms: C_63  and  C_64
REMARK   49  A    between atoms: C_64  and  C_65
REMARK   50  A    between atoms: C_65  and  C_66
REMARK   51  A    between atoms: C_66  and  C_67
REMARK   52  A    between atoms: C_67  and  C_68
REMARK   53  A    between atoms: C_68  and  C_69
REMARK   54  A    between atoms: C_69  and  C_70
REMARK   55  A    between atoms: C_70  and  C_71
REMARK                            x       y       z     vdW  Elec       q    Type
REMARK                         _______ _______ _______ _____ _____    ______ ____
ROOT
ATOM      1  C   UNL     1     -53.059 -30.961 207.676  0.00  0.00    +0.000 C 
ENDROOT
BRANCH   1   2
ATOM      2  N   UNL     1     -53.405 -29.530 207.595  0.00  0.00    +0.000 N 
ATOM      3  C   UNL     1     -53.111 -28.673 208.589  0.00  0.00    +0.000 C 
ATOM      4  O   UNL     1     -52.547 -28.997 209.634  0.00  0.00    +0.000 OA
ATOM      5  H   UNL     1     -53.880 -29.181 206.763  0.00  0.00    +0.000 HD
BRANCH   3   6
ATOM      6  C   UNL     1     -53.560 -27.223 208.355  0.00  0.00    +0.000 C 
BRANCH   6   7
ATOM      7  C   UNL     1     -52.435 -26.232 208.684  0.00  0.00    +0.000 C 
BRANCH   7   8
ATOM      8  C   UNL     1     -51.544 -25.991 207.460  0.00  0.00    +0.000 C 
BRANCH   8   9
ATOM      9  C   UNL     1     -50.668 -24.764 207.736  0.00  0.00    +0.000 C 
BRANCH   9  10
ATOM     10  C   UNL     1     -49.479 -24.701 206.771  0.00  0.00    +0.000 C 
BRANCH  10  11
ATOM     11  C   UNL     1     -48.323 -23.981 207.468  0.00  0.00    +0.000 C 
BRANCH  11  12
ATOM     12  C   UNL     1     -47.232 -23.630 206.450  0.00  0.00    +0.000 C 
BRANCH  12  13
ATOM     13  C   UNL     1     -45.995 -23.065 207.165  0.00  0.00    +0.000 C 
BRANCH  13  14
ATOM     14  C   UNL     1     -45.302 -24.168 207.979  0.00  0.00    +0.000 C 
BRANCH  14  15
ATOM     15  C   UNL     1     -43.792 -23.927 208.088  0.00  0.00    +0.000 C 
BRANCH  15  16
ATOM     16  C   UNL     1     -43.490 -22.820 209.100  0.00  0.00    +0.000 C 
BRANCH  16  17
ATOM     17  C   UNL     1     -43.441 -23.394 210.520  0.00  0.00    +0.000 C 
BRANCH  17  18
ATOM     18  C   UNL     1     -43.036 -22.283 211.492  0.00  0.00    +0.000 C 
BRANCH  18  19
ATOM     19  C   UNL     1     -43.526 -22.611 212.905  0.00  0.00    +0.000 C 
BRANCH  19  20
ATOM     20  C   UNL     1     -43.253 -21.414 213.821  0.00  0.00    +0.000 C 
BRANCH  20  21
ATOM     21  C   UNL     1     -44.452 -20.460 213.800  0.00  0.00    +0.000 C 
BRANCH  21  22
ATOM     22  C   UNL     1     -43.989 -19.034 214.119  0.00  0.00    +0.000 C 
BRANCH  22  23
ATOM     23  C   UNL     1     -45.203 -18.138 214.388  0.00  0.00    +0.000 C 
BRANCH  23  24
ATOM     24  C   UNL     1     -45.797 -17.624 213.066  0.00  0.00    +0.000 C 
BRANCH  24  25
ATOM     25  C   UNL     1     -47.329 -17.712 213.110  0.00  0.00    +0.000 C 
BRANCH  25  26
ATOM     26  C   UNL     1     -47.990 -16.682 212.175  0.00  0.00    +0.000 C 
BRANCH  26  27
ATOM     27  C   UNL     1     -47.474 -16.772 210.729  0.00  0.00    +0.000 C 
BRANCH  27  28
ATOM     28  C   UNL     1     -47.728 -18.158 210.138  0.00  0.00    +0.000 C 
BRANCH  28  29
ATOM     29  C   UNL     1     -47.585 -18.086 208.617  0.00  0.00    +0.000 C 
ATOM     30  C   UNL     1     -47.585 -19.502 208.032  0.00  0.00    +0.000 C 
ENDBRANCH  28  29
ENDBRANCH  27  28
ENDBRANCH  26  27
ENDBRANCH  25  26
ENDBRANCH  24  25
ENDBRANCH  23  24
ENDBRANCH  22  23
ENDBRANCH  21  22
ENDBRANCH  20  21
ENDBRANCH  19  20
ENDBRANCH  18  19
ENDBRANCH  17  18
ENDBRANCH  16  17
ENDBRANCH  15  16
ENDBRANCH  14  15
ENDBRANCH  13  14
ENDBRANCH  12  13
ENDBRANCH  11  12
ENDBRANCH  10  11
ENDBRANCH   9  10
ENDBRANCH   8   9
ENDBRANCH   7   8
ENDBRANCH   6   7
ENDBRANCH   3   6
ENDBRANCH   1   2
BRANCH   1  31
ATOM     31  C   UNL     1     -53.085 -31.599 206.272  0.00  0.00    +0.000 C 
BRANCH  31  32
ATOM     32  O   UNL     1     -52.720 -32.980 206.366  0.00  0.00    +0.000 OA
ATOM     33  H   UNL     1     -53.306 -33.423 206.984  0.00  0.00    +0.000 HD
ENDBRANCH  31  32
BRANCH  31  34
ATOM     34  C   UNL     1     -52.142 -30.890 205.279  0.00  0.00    +0.000 C 
BRANCH  34  35
ATOM     35  O   UNL     1     -52.289 -31.522 204.003  0.00  0.00    +0.000 OA
ATOM     36  H   UNL     1     -53.207 -31.473 203.727  0.00  0.00    +0.000 HD
ENDBRANCH  34  35
BRANCH  34  37
ATOM     37  C   UNL     1     -50.672 -30.961 205.734  0.00  0.00    +0.000 C 
BRANCH  37  38
ATOM     38  C   UNL     1     -49.711 -30.566 204.597  0.00  0.00    +0.000 C 
BRANCH  38  39
ATOM     39  C   UNL     1     -49.993 -29.132 204.119  0.00  0.00    +0.000 C 
BRANCH  39  40
ATOM     40  C   UNL     1     -48.773 -28.555 203.383  0.00  0.00    +0.000 C 
BRANCH  40  41
ATOM     41  C   UNL     1     -48.694 -29.115 201.956  0.00  0.00    +0.000 C 
BRANCH  41  42
ATOM     42  C   UNL     1     -47.579 -28.395 201.185  0.00  0.00    +0.000 C 
BRANCH  42  43
ATOM     43  C   UNL     1     -47.562 -28.841 199.716  0.00  0.00    +0.000 C 
BRANCH  43  44
ATOM     44  C   UNL     1     -46.624 -30.038 199.544  0.00  0.00    +0.000 C 
BRANCH  44  45
ATOM     45  C   UNL     1     -46.576 -30.454 198.069  0.00  0.00    +0.000 C 
BRANCH  45  46
ATOM     46  C   UNL     1     -45.420 -31.441 197.849  0.00  0.00    +0.000 C 
BRANCH  46  47
ATOM     47  C   UNL     1     -45.885 -32.618 196.983  0.00  0.00    +0.000 C 
BRANCH  47  48
ATOM     48  C   UNL     1     -44.719 -33.591 196.753  0.00  0.00    +0.000 C 
BRANCH  48  50
ATOM     49  C   UNL     1     -44.062 -36.005 196.568  0.00  0.00    +0.000 C 
ATOM     50  C   UNL     1     -45.233 -35.036 196.762  0.00  0.00    +0.000 C 
ENDBRANCH  48  50
ENDBRANCH  47  48
ENDBRANCH  46  47
ENDBRANCH  45  46
ENDBRANCH  44  45
ENDBRANCH  43  44
ENDBRANCH  42  43
ENDBRANCH  41  42
ENDBRANCH  40  41
ENDBRANCH  39  40
ENDBRANCH  38  39
ENDBRANCH  37  38
ENDBRANCH  34  37
ENDBRANCH  31  34
ENDBRANCH   1  31
BRANCH   1  51
ATOM     51  C   UNL     1     -54.086 -31.657 208.580  0.00  0.00    +0.000 C 
BRANCH  51  52
ATOM     52  O   UNL     1     -55.398 -31.409 208.064  0.00  0.00    +0.000 OA
BRANCH  52  53
ATOM     53  C   UNL     1     -56.446 -31.996 208.857  0.00  0.00    +0.000 C 
ATOM     54  C   UNL     1     -58.108 -30.365 207.964  0.00  0.00    +0.000 C 
ATOM     55  C   UNL     1     -58.118 -29.654 209.321  0.00  0.00    +0.000 C 
ATOM     56  C   UNL     1     -56.793 -29.949 210.059  0.00  0.00    +0.000 C 
ATOM     57  C   UNL     1     -57.760 -31.843 208.116  0.00  0.00    +0.000 C 
ATOM     58  O   UNL     1     -56.572 -31.373 210.149  0.00  0.00    +0.000 OA
BRANCH  57  59
ATOM     59  O   UNL     1     -57.637 -32.432 206.816  0.00  0.00    +0.000 OA
ATOM     60  H   UNL     1     -57.418 -33.362 206.907  0.00  0.00    +0.000 HD
ENDBRANCH  57  59
BRANCH  54  61
ATOM     61  O   UNL     1     -59.398 -30.262 207.359  0.00  0.00    +0.000 OA
ATOM     62  H   UNL     1     -59.630 -29.336 207.257  0.00  0.00    +0.000 HD
ENDBRANCH  54  61
BRANCH  56  63
ATOM     63  C   UNL     1     -56.769 -29.377 211.484  0.00  0.00    +0.000 C 
BRANCH  63  64
ATOM     64  O   UNL     1     -56.654 -27.953 211.432  0.00  0.00    +0.000 OA
ATOM     65  H   UNL     1     -56.639 -27.601 212.325  0.00  0.00    +0.000 HD
ENDBRANCH  63  64
ENDBRANCH  56  63
BRANCH  55  66
ATOM     66  O   UNL     1     -59.274 -30.095 210.078  0.00  0.00    +0.000 OA
BRANCH  66  67
ATOM     67  C   UNL     1     -59.983 -29.029 210.746  0.00  0.00    +0.000 C 
BRANCH  67  68
ATOM     68  C   UNL     1     -61.010 -28.495 209.952  0.00  0.00    +0.000 A 
ATOM     69  C   UNL     1     -61.138 -27.112 209.801  0.00  0.00    +0.000 A 
ATOM     70  C   UNL     1     -62.163 -26.574 209.023  0.00  0.00    +0.000 A 
ATOM     71  C   UNL     1     -63.083 -27.410 208.381  0.00  0.00    +0.000 A 
ATOM     72  C   UNL     1     -62.958 -28.795 208.543  0.00  0.00    +0.000 A 
ATOM     73  C   UNL     1     -61.931 -29.331 209.322  0.00  0.00    +0.000 A 
BRANCH  71  74
ATOM     74  C   UNL     1     -64.123 -26.867 207.598  0.00  0.00    +0.000 C 
ATOM     75  F   UNL     1     -63.722 -25.686 207.024  0.00  0.00    +0.000 F 
ATOM     76  F   UNL     1     -65.207 -26.630 208.392  0.00  0.00    +0.000 F 
ATOM     77  F   UNL     1     -64.488 -27.741 206.591  0.00  0.00    +0.000 F 
ENDBRANCH  71  74
ENDBRANCH  67  68
ENDBRANCH  66  67
ENDBRANCH  55  66
ENDBRANCH  52  53
ENDBRANCH  51  52
ENDBRANCH   1  51
TORSDOF 53
