REMARK  Name = 6pnn_ligand
REMARK  9 active torsions:
REMARK  status: ('A' for Active; 'I' for Inactive)
REMARK    1  A    between atoms: C_1  and  C_2
REMARK    2  A    between atoms: N_4  and  C_5
REMARK    3  A    between atoms: C_11  and  S_12
REMARK    4  A    between atoms: S_12  and  N_15
REMARK    5  A    between atoms: N_15  and  C_16
REMARK    6  A    between atoms: N_15  and  C_17
REMARK    7  A    between atoms: C_17  and  C_18
REMARK    8  A    between atoms: C_18  and  O_19
REMARK    9  A    between atoms: O_19  and  C_20
REMARK                            x       y       z     vdW  Elec       q    Type
REMARK                         _______ _______ _______ _____ _____    ______ ____
ROOT
ATOM      1  C   UNL     1      16.056  -5.526  15.642  0.00  0.00    +0.000 A 
ATOM      2  C   UNL     1      16.933  -4.683  16.391  0.00  0.00    +0.000 A 
ATOM      3  C   UNL     1      14.674  -5.378  15.789  0.00  0.00    +0.000 A 
ATOM      4  C   UNL     1      14.205  -4.379  16.634  0.00  0.00    +0.000 A 
ATOM      5  C   UNL     1      15.098  -3.539  17.344  0.00  0.00    +0.000 A 
ATOM      6 CL   UNL     1      14.497  -2.332  18.323  0.00  0.00    +0.000 Cl
ATOM      7  C   UNL     1      16.490  -3.659  17.234  0.00  0.00    +0.000 A 
ENDROOT
BRANCH   1  11
ATOM      8  C   UNL     1      18.286  -7.622  13.629  0.00  0.00    +0.000 C 
ATOM      9  C   UNL     1      17.836  -6.436  14.370  0.00  0.00    +0.000 C 
ATOM     10  O   UNL     1      18.581  -5.464  14.361  0.00  0.00    +0.000 OA
ATOM     11  N   UNL     1      16.547  -6.510  14.853  0.00  0.00    +0.000 N 
ATOM     12  H   UNL     1      15.961  -7.310  14.615  0.00  0.00    +0.000 HD
ENDBRANCH   1  11
BRANCH   7  13
ATOM     13  S   UNL     1      17.784  -2.465  18.251  0.00  0.00    +0.000 S 
ATOM     14  O   UNL     1      17.360  -2.526  19.718  0.00  0.00    +0.000 OA
ATOM     15  O   UNL     1      19.298  -2.825  18.094  0.00  0.00    +0.000 OA
BRANCH  13  16
ATOM     16  N   UNL     1      17.880  -0.716  17.817  0.00  0.00    +0.000 NA
ATOM     17  C   UNL     1      16.572  -0.098  17.523  0.00  0.00    +0.000 C 
BRANCH  16  18
ATOM     18  C   UNL     1      18.906  -0.516  16.760  0.00  0.00    +0.000 C 
BRANCH  18  19
ATOM     19  C   UNL     1      18.517  -1.298  15.457  0.00  0.00    +0.000 C 
BRANCH  19  20
ATOM     20  O   UNL     1      19.274  -2.522  15.185  0.00  0.00    +0.000 OA
ATOM     21  C   UNL     1      18.976  -2.946  13.824  0.00  0.00    +0.000 C 
ENDBRANCH  19  20
ENDBRANCH  18  19
ENDBRANCH  16  18
ENDBRANCH  13  16
ENDBRANCH   7  13
TORSDOF 6
