REMARK  Name = 6ufo_ligand
REMARK  15 active torsions:
REMARK  status: ('A' for Active; 'I' for Inactive)
REMARK    1  A    between atoms: C_1  and  C_2
REMARK    2  A    between atoms: C_1  and  C_11
REMARK    3  A    between atoms: C_2  and  N_12
REMARK    4  A    between atoms: C_3  and  C_4
REMARK    5  A    between atoms: C_3  and  N_12
REMARK    6  A    between atoms: C_4  and  C_5
REMARK    7  A    between atoms: C_5  and  N_13
REMARK    8  A    between atoms: C_6  and  O_14
REMARK    9  A    between atoms: C_7  and  C_8
REMARK   10  A    between atoms: C_7  and  O_14
REMARK   11  A    between atoms: C_8  and  C_9
REMARK   12  A    between atoms: C_8  and  O_15
REMARK   13  A    between atoms: C_8  and  O_16
REMARK   14  A    between atoms: C_9  and  C_10
REMARK   15  A    between atoms: C_10  and  C_11
REMARK                            x       y       z     vdW  Elec       q    Type
REMARK                         _______ _______ _______ _____ _____    ______ ____
ROOT
ATOM      1  C   UNL     1     -24.641 -40.331  36.038  0.00  0.00    +0.000 C 
ENDROOT
BRANCH   1   2
ATOM      2  C   UNL     1     -25.875 -39.925  35.180  0.00  0.00    +0.000 C 
BRANCH   2   3
ATOM      3  N   UNL     1     -27.105 -40.719  35.492  0.00  0.00    +0.000 N 
ATOM      4  H   UNL     1     -27.526 -40.318  36.330  0.00  0.00    +0.000 HD
ATOM      5  H   UNL     1     -26.823 -41.692  35.609  0.00  0.00    +0.000 HD
BRANCH   3   6
ATOM      6  C   UNL     1     -28.134 -40.673  34.400  0.00  0.00    +0.000 C 
BRANCH   6   7
ATOM      7  C   UNL     1     -29.179 -39.541  34.618  0.00  0.00    +0.000 C 
BRANCH   7   8
ATOM      8  C   UNL     1     -30.557 -40.042  35.150  0.00  0.00    +0.000 C 
BRANCH   8   9
ATOM      9  N   UNL     1     -30.930 -39.393  36.431  0.00  0.00    +0.000 N 
ATOM     10  H   UNL     1     -31.834 -39.749  36.740  0.00  0.00    +0.000 HD
ATOM     11  H   UNL     1     -30.222 -39.601  37.135  0.00  0.00    +0.000 HD
ATOM     12  H   UNL     1     -30.989 -38.384  36.295  0.00  0.00    +0.000 HD
ENDBRANCH   8   9
ENDBRANCH   7   8
ENDBRANCH   6   7
ENDBRANCH   3   6
ENDBRANCH   2   3
ENDBRANCH   1   2
BRANCH   1  13
ATOM     13  C   UNL     1     -23.461 -40.920  35.220  0.00  0.00    +0.000 C 
BRANCH  13  14
ATOM     14  C   UNL     1     -22.122 -40.141  35.310  0.00  0.00    +0.000 C 
BRANCH  14  15
ATOM     15  C   UNL     1     -20.857 -41.025  35.195  0.00  0.00    +0.000 C 
BRANCH  15  16
ATOM     16  C   UNL     1     -19.899 -40.577  34.073  0.00  0.00    +0.000 C 
BRANCH  16  17
ATOM     17  O   UNL     1     -20.444 -40.670  32.802  0.00  0.00    +0.000 OA
ATOM     18  H   UNL     1     -20.732 -41.572  32.644  0.00  0.00    +0.000 HD
ENDBRANCH  16  17
BRANCH  16  19
ATOM     19  O   UNL     1     -19.473 -39.280  34.330  0.00  0.00    +0.000 OA
ATOM     20  H   UNL     1     -19.099 -39.236  35.213  0.00  0.00    +0.000 HD
ENDBRANCH  16  19
BRANCH  16  21
ATOM     21  C   UNL     1     -18.714 -41.618  34.219  0.00  0.00    +0.000 C 
BRANCH  21  23
ATOM     22  C   UNL     1     -16.852 -40.791  35.300  0.00  0.00    +0.000 C 
ATOM     23  O   UNL     1     -18.097 -41.393  35.447  0.00  0.00    +0.000 OA
ENDBRANCH  21  23
ENDBRANCH  16  21
ENDBRANCH  15  16
ENDBRANCH  14  15
ENDBRANCH  13  14
ENDBRANCH   1  13
TORSDOF 14
