REMARK  Name = 6k05_ligand
REMARK  5 active torsions:
REMARK  status: ('A' for Active; 'I' for Inactive)
REMARK    1  A    between atoms: C_2  and  C_13
REMARK    2  A    between atoms: C_7  and  N_28
REMARK    3  A    between atoms: C_11  and  C_12
REMARK    4  A    between atoms: C_16  and  N_26
REMARK    5  A    between atoms: C_17  and  N_28
REMARK                            x       y       z     vdW  Elec       q    Type
REMARK                         _______ _______ _______ _____ _____    ______ ____
ROOT
ATOM      1  C   UNL     1      16.205   9.777 -10.312  0.00  0.00    +0.000 C 
ATOM      2  C   UNL     1      16.500  10.795 -11.452  0.00  0.00    +0.000 C 
ATOM      3  C   UNL     1      17.963  11.161 -11.803  0.00  0.00    +0.000 C 
ATOM      4  C   UNL     1      19.138  10.513 -11.013  0.00  0.00    +0.000 C 
ATOM      5  C   UNL     1      18.840   9.546  -9.924  0.00  0.00    +0.000 C 
ATOM      6  C   UNL     1      17.375   9.144  -9.543  0.00  0.00    +0.000 C 
ATOM      7  C   UNL     1      20.586  10.929 -11.413  0.00  0.00    +0.000 C 
ATOM      8  C   UNL     1      21.478   9.781 -11.894  0.00  0.00    +0.000 C 
ATOM      9  C   UNL     1      21.083   8.415 -11.370  0.00  0.00    +0.000 C 
ATOM     10  C   UNL     1      21.048   8.426  -9.829  0.00  0.00    +0.000 A 
ATOM     11  C   UNL     1      20.230   8.831  -7.864  0.00  0.00    +0.000 A 
ATOM     12  C   UNL     1      19.293   9.296  -6.758  0.00  0.00    +0.000 C 
ATOM     13  N   UNL     1      20.012   8.956  -9.196  0.00  0.00    +0.000 N 
ATOM     14  N   UNL     1      21.929   7.957  -8.925  0.00  0.00    +0.000 NA
ATOM     15  N   UNL     1      21.402   8.232  -7.711  0.00  0.00    +0.000 NA
ENDROOT
BRANCH   2  16
ATOM     16  C   UNL     1      15.373  11.452 -12.260  0.00  0.00    +0.000 A 
ATOM     17  C   UNL     1      14.014  11.306 -12.103  0.00  0.00    +0.000 A 
ATOM     18  C   UNL     1      15.577  12.315 -13.307  0.00  0.00    +0.000 A 
ATOM     19  C   UNL     1      11.982  12.229 -13.226  0.00  0.00    +0.000 C 
ATOM     20  N   UNL     1      13.411  12.059 -13.028  0.00  0.00    +0.000 N 
ATOM     21  N   UNL     1      14.391  12.692 -13.780  0.00  0.00    +0.000 NA
ENDBRANCH   2  16
BRANCH   7  22
ATOM     22  N   UNL     1      20.564  11.921 -12.481  0.00  0.00    +0.000 N 
ATOM     23  H   UNL     1      20.822  11.651 -13.430  0.00  0.00    +0.000 HD
BRANCH  22  24
ATOM     24  C   UNL     1      20.177  13.289 -12.201  0.00  0.00    +0.000 A 
ATOM     25  C   UNL     1      20.151  14.314 -13.330  0.00  0.00    +0.000 A 
ATOM     26  C   UNL     1      19.737  15.746 -13.022  0.00  0.00    +0.000 A 
ATOM     27  C   UNL     1      19.355  16.122 -11.596  0.00  0.00    +0.000 A 
ATOM     28  C   UNL     1      19.373  15.107 -10.468  0.00  0.00    +0.000 A 
ATOM     29  C   UNL     1      19.788  13.675 -10.777  0.00  0.00    +0.000 A 
ATOM     30 CL   UNL     1      18.870  17.784 -11.240  0.00  0.00    +0.000 Cl
ENDBRANCH  22  24
ENDBRANCH   7  22
TORSDOF 3
