REMARK  Name = 6jse_ligand
REMARK  7 active torsions:
REMARK  status: ('A' for Active; 'I' for Inactive)
REMARK    1  A    between atoms: C_4  and  C_6
REMARK    2  A    between atoms: C_6  and  C_19
REMARK    3  A    between atoms: C_7  and  C_28
REMARK    4  A    between atoms: N_9  and  C_24
REMARK    5  A    between atoms: O_10  and  C_17
REMARK    6  A    between atoms: O_10  and  C_21
REMARK    7  A    between atoms: C_14  and  C_15
REMARK                            x       y       z     vdW  Elec       q    Type
REMARK                         _______ _______ _______ _____ _____    ______ ____
ROOT
ATOM      1  C   UNL     1      21.532  39.241  -7.540  0.00  0.00    +0.000 A 
ATOM      2  C   UNL     1      21.327  38.541  -8.733  0.00  0.00    +0.000 A 
ATOM      3  C   UNL     1      20.037  38.128  -9.087  0.00  0.00    +0.000 A 
ATOM      4  C   UNL     1      18.868  38.429  -8.184  0.00  0.00    +0.000 A 
ATOM      5  C   UNL     1      19.165  39.138  -7.007  0.00  0.00    +0.000 A 
ATOM      6  C   UNL     1      20.462  39.546  -6.675  0.00  0.00    +0.000 A 
ATOM      7  F   UNL     1      19.852  37.459 -10.236  0.00  0.00    +0.000 F 
ENDROOT
BRANCH   4   8
ATOM      8  C   UNL     1      17.432  37.995  -8.516  0.00  0.00    +0.000 C 
ATOM      9  C   UNL     1      16.942  38.638  -9.847  0.00  0.00    +0.000 C 
ATOM     10  N   UNL     1      15.158  39.534  -6.098  0.00  0.00    +0.000 NA
ATOM     11  C   UNL     1      16.818  40.180  -9.756  0.00  0.00    +0.000 C 
ATOM     12  C   UNL     1      15.925  39.426  -7.181  0.00  0.00    +0.000 C 
ATOM     13  C   UNL     1      17.464  36.462  -8.612  0.00  0.00    +0.000 C 
ATOM     14  N   UNL     1      16.515  38.315  -7.401  0.00  0.00    +0.000 N 
ATOM     15  S   UNL     1      16.086  40.735  -8.221  0.00  0.00    +0.000 S 
ATOM     16  H   UNL     1      15.053  38.740  -5.466  0.00  0.00    +0.000 HD
ATOM     17  H   UNL     1      16.334  37.565  -6.734  0.00  0.00    +0.000 HD
BRANCH   9  18
ATOM     18  C   UNL     1      15.711  37.972 -10.416  0.00  0.00    +0.000 A 
ATOM     19  C   UNL     1      15.865  37.154 -11.550  0.00  0.00    +0.000 A 
ATOM     20  C   UNL     1      14.769  36.486 -12.115  0.00  0.00    +0.000 A 
ATOM     21  C   UNL     1      13.495  36.625 -11.551  0.00  0.00    +0.000 A 
ATOM     22  C   UNL     1      13.315  37.422 -10.414  0.00  0.00    +0.000 A 
ATOM     23  C   UNL     1      14.416  38.088  -9.854  0.00  0.00    +0.000 A 
ENDBRANCH   9  18
ENDBRANCH   4   8
BRANCH   6  24
ATOM     24  N   UNL     1      20.593  40.217  -5.489  0.00  0.00    +0.000 N 
ATOM     25  C   UNL     1      21.673  40.822  -4.946  0.00  0.00    +0.000 C 
ATOM     26  O   UNL     1      22.795  40.799  -5.436  0.00  0.00    +0.000 OA
ATOM     27  H   UNL     1      19.743  40.269  -4.927  0.00  0.00    +0.000 HD
BRANCH  25  29
ATOM     28  N   UNL     1      20.387  41.381  -2.885  0.00  0.00    +0.000 NA
ATOM     29  C   UNL     1      21.491  41.578  -3.654  0.00  0.00    +0.000 A 
ATOM     30  C   UNL     1      20.189  42.040  -1.731  0.00  0.00    +0.000 A 
ATOM     31  C   UNL     1      21.152  42.952  -1.303  0.00  0.00    +0.000 A 
ATOM     32  C   UNL     1      22.457  42.490  -3.223  0.00  0.00    +0.000 A 
ATOM     33  N   UNL     1      22.263  43.144  -2.065  0.00  0.00    +0.000 NA
BRANCH  31  34
ATOM     34  O   UNL     1      20.964  43.623  -0.119  0.00  0.00    +0.000 OA
BRANCH  34  36
ATOM     35  F   UNL     1      22.909  43.624   1.107  0.00  0.00    +0.000 F 
ATOM     36  C   UNL     1      21.982  44.429   0.490  0.00  0.00    +0.000 C 
ENDBRANCH  34  36
ENDBRANCH  31  34
ENDBRANCH  25  29
ENDBRANCH   6  24
TORSDOF 6
