REMARK  Name = 6pka_ligand
REMARK  10 active torsions:
REMARK  status: ('A' for Active; 'I' for Inactive)
REMARK    1  A    between atoms: N_3  and  C_4
REMARK    2  A    between atoms: C_7  and  C_8
REMARK    3  A    between atoms: C_11  and  C_16
REMARK    4  A    between atoms: N_12  and  C_16
REMARK    5  A    between atoms: C_16  and  C_17
REMARK    6  A    between atoms: C_17  and  C_18
REMARK    7  A    between atoms: N_24  and  C_25
REMARK    8  A    between atoms: C_46  and  C_49
REMARK    9  A    between atoms: C_50  and  O_52
REMARK   10  A    between atoms: C_56  and  C_57
REMARK                            x       y       z     vdW  Elec       q    Type
REMARK                         _______ _______ _______ _____ _____    ______ ____
ROOT
ATOM      1  C   UNL     1     -18.287  72.024 -38.879  0.00  0.00    +0.000 C 
ATOM      2  C   UNL     1     -19.400  73.048 -38.593  0.00  0.00    +0.000 C 
ATOM      3  O   UNL     1     -20.514  72.881 -39.000  0.00  0.00    +0.000 OA
ATOM      4  C   UNL     1     -17.751  72.313 -40.255  0.00  0.00    +0.000 C 
ATOM      5  O   UNL     1     -16.553  71.574 -40.283  0.00  0.00    +0.000 OA
ATOM      6  N   UNL     1     -19.058  74.227 -37.842  0.00  0.00    +0.000 N 
ATOM      7  C   UNL     1     -17.855  74.478 -37.361  0.00  0.00    +0.000 C 
ATOM      8  C   UNL     1     -17.601  73.567 -36.163  0.00  0.00    +0.000 C 
ATOM      9  O   UNL     1     -18.490  73.137 -35.466  0.00  0.00    +0.000 OA
ATOM     10  C   UNL     1     -17.912  75.943 -36.746  0.00  0.00    +0.000 C 
ATOM     11  C   UNL     1     -19.401  76.126 -36.492  0.00  0.00    +0.000 C 
ATOM     12  C   UNL     1     -20.041  75.433 -37.442  0.00  0.00    +0.000 C 
ATOM     13  C   UNL     1     -14.193  72.390 -36.833  0.00  0.00    +0.000 C 
ATOM     14  N   UNL     1     -16.260  73.123 -35.786  0.00  0.00    +0.000 N 
ATOM     15  O   UNL     1     -12.989  72.503 -36.910  0.00  0.00    +0.000 OA
ATOM     16  C   UNL     1     -15.029  73.561 -36.441  0.00  0.00    +0.000 C 
ATOM     17  C   UNL     1     -14.253  74.401 -35.426  0.00  0.00    +0.000 C 
ATOM     18  C   UNL     1     -15.465  73.198 -33.549  0.00  0.00    +0.000 C 
ATOM     19  C   UNL     1     -16.147  72.315 -34.569  0.00  0.00    +0.000 C 
ATOM     20  C   UNL     1     -14.179  73.779 -34.054  0.00  0.00    +0.000 C 
ATOM     21  N   UNL     1     -14.810  71.112 -37.115  0.00  0.00    +0.000 N 
ATOM     22  C   UNL     1     -13.972  69.990 -37.380  0.00  0.00    +0.000 C 
ATOM     23  C   UNL     1     -14.380  69.126 -38.533  0.00  0.00    +0.000 C 
ATOM     24  O   UNL     1     -14.641  67.953 -38.385  0.00  0.00    +0.000 OA
ATOM     25  C   UNL     1     -13.981  69.226 -36.062  0.00  0.00    +0.000 C 
ATOM     26  C   UNL     1     -15.285  72.180 -39.974  0.00  0.00    +0.000 C 
ATOM     27  N   UNL     1     -14.374  69.711 -39.810  0.00  0.00    +0.000 N 
ATOM     28  C   UNL     1     -14.041  71.267 -40.170  0.00  0.00    +0.000 C 
ATOM     29  C   UNL     1     -13.672  71.246 -41.459  0.00  0.00    +0.000 C 
ATOM     30  C   UNL     1     -14.726  69.050 -41.157  0.00  0.00    +0.000 C 
ATOM     31  C   UNL     1     -13.879  69.536 -43.369  0.00  0.00    +0.000 C 
ATOM     32  C   UNL     1     -14.570  70.031 -42.122  0.00  0.00    +0.000 C 
ATOM     33  O   UNL     1     -16.398  71.743 -40.169  0.00  0.00    +0.000 OA
ATOM     34  H   UNL     1     -15.825  71.016 -37.124  0.00  0.00    +0.000 HD
ENDROOT
BRANCH   1  37
ATOM     35  C   UNL     1     -18.270  69.722 -37.910  0.00  0.00    +0.000 C 
ATOM     36  O   UNL     1     -17.417  70.012 -37.130  0.00  0.00    +0.000 OA
ATOM     37  N   UNL     1     -18.772  70.700 -38.853  0.00  0.00    +0.000 N 
ATOM     38  H   UNL     1     -19.496  70.424 -39.516  0.00  0.00    +0.000 HD
BRANCH  35  39
ATOM     39  C   UNL     1     -18.826  68.298 -37.957  0.00  0.00    +0.000 C 
BRANCH  39  43
ATOM     40  C   UNL     1     -18.526  67.938 -40.393  0.00  0.00    +0.000 C 
ATOM     41  O   UNL     1     -19.466  68.629 -40.744  0.00  0.00    +0.000 OA
ATOM     42  N   UNL     1     -17.716  67.230 -41.311  0.00  0.00    +0.000 N 
ATOM     43  N   UNL     1     -18.145  67.714 -39.032  0.00  0.00    +0.000 N 
ATOM     44  H   UNL     1     -16.994  66.617 -40.933  0.00  0.00    +0.000 HD
ATOM     45  H   UNL     1     -17.349  67.107 -38.838  0.00  0.00    +0.000 HD
BRANCH  42  46
ATOM     46  C   UNL     1     -17.841  67.316 -42.748  0.00  0.00    +0.000 A 
ATOM     47  C   UNL     1     -17.863  66.161 -43.506  0.00  0.00    +0.000 A 
ATOM     48  C   UNL     1     -17.909  66.275 -44.890  0.00  0.00    +0.000 A 
ATOM     49  C   UNL     1     -17.899  67.524 -45.498  0.00  0.00    +0.000 A 
ATOM     50  C   UNL     1     -17.950  67.611 -47.007  0.00  0.00    +0.000 C 
ATOM     51  C   UNL     1     -17.858  68.679 -44.741  0.00  0.00    +0.000 A 
ATOM     52  C   UNL     1     -17.805  68.579 -43.340  0.00  0.00    +0.000 A 
ENDBRANCH  42  46
ENDBRANCH  39  43
BRANCH  39  53
ATOM     53  C   UNL     1     -18.507  67.554 -36.682  0.00  0.00    +0.000 C 
BRANCH  53  56
ATOM     54  F   UNL     1     -22.438  64.847 -35.537  0.00  0.00    +0.000 F 
ATOM     55  F   UNL     1     -18.665  62.734 -37.320  0.00  0.00    +0.000 F 
ATOM     56  C   UNL     1     -19.259  66.209 -36.578  0.00  0.00    +0.000 A 
ATOM     57  C   UNL     1     -20.588  63.728 -36.410  0.00  0.00    +0.000 A 
ATOM     58  C   UNL     1     -20.543  66.129 -36.075  0.00  0.00    +0.000 A 
ATOM     59  C   UNL     1     -18.646  65.043 -36.996  0.00  0.00    +0.000 A 
ATOM     60  C   UNL     1     -21.207  64.893 -36.015  0.00  0.00    +0.000 A 
ATOM     61  C   UNL     1     -19.305  63.821 -36.896  0.00  0.00    +0.000 A 
ENDBRANCH  53  56
ENDBRANCH  39  53
ENDBRANCH  35  39
ENDBRANCH   1  37
BRANCH  26  62
ATOM     62  O   UNL     1     -15.146  73.332 -39.626  0.00  0.00    +0.000 OA
ATOM     63  H   UNL     1     -14.214  73.510 -39.476  0.00  0.00    +0.000 HD
ENDBRANCH  26  62
TORSDOF 7
