REMARK  Name = 6nrf_ligand
REMARK  3 active torsions:
REMARK  status: ('A' for Active; 'I' for Inactive)
REMARK    1  A    between atoms: C_6  and  C_7
REMARK    2  A    between atoms: C_9  and  C_35
REMARK    3  A    between atoms: C_16  and  C_19
REMARK                            x       y       z     vdW  Elec       q    Type
REMARK                         _______ _______ _______ _____ _____    ______ ____
ROOT
ATOM      1  C   UNL     1      26.477  -7.801   6.942  0.00  0.00    +0.000 A 
ATOM      2  C   UNL     1      25.289  -7.882   7.674  0.00  0.00    +0.000 A 
ATOM      3  C   UNL     1      24.442  -9.613   6.220  0.00  0.00    +0.000 A 
ATOM      4  C   UNL     1      24.289  -8.772   7.319  0.00  0.00    +0.000 A 
ATOM      5  C   UNL     1      25.613  -9.526   5.476  0.00  0.00    +0.000 A 
ATOM      6  C   UNL     1      26.613  -8.638   5.832  0.00  0.00    +0.000 A 
ENDROOT
BRANCH   3  12
ATOM      7  N   UNL     1      23.133 -11.642   6.669  0.00  0.00    +0.000 N 
ATOM      8  N   UNL     1      20.104 -14.636   9.493  0.00  0.00    +0.000 NA
ATOM      9  N   UNL     1      21.801 -14.186  10.878  0.00  0.00    +0.000 NA
ATOM     10  N   UNL     1      21.850 -13.199   8.689  0.00  0.00    +0.000 N 
ATOM     11  O   UNL     1      22.858 -10.514   4.757  0.00  0.00    +0.000 OA
ATOM     12  C   UNL     1      23.402 -10.617   5.834  0.00  0.00    +0.000 C 
ATOM     13  C   UNL     1      23.777 -11.878   7.971  0.00  0.00    +0.000 C 
ATOM     14  C   UNL     1      22.732 -12.082   9.050  0.00  0.00    +0.000 C 
ATOM     15  C   UNL     1      21.250 -14.004   9.649  0.00  0.00    +0.000 C 
ATOM     16  C   UNL     1      20.937 -14.995  11.590  0.00  0.00    +0.000 C 
ATOM     17  C   UNL     1      20.963 -15.489  12.889  0.00  0.00    +0.000 C 
ATOM     18  C   UNL     1      19.907 -16.285  13.310  0.00  0.00    +0.000 C 
ATOM     19  C   UNL     1      18.849 -16.575  12.454  0.00  0.00    +0.000 C 
ATOM     20  C   UNL     1      18.826 -16.076  11.155  0.00  0.00    +0.000 C 
ATOM     21  C   UNL     1      19.884 -15.276  10.720  0.00  0.00    +0.000 C 
ATOM     22  C   UNL     1      21.164 -12.918   7.421  0.00  0.00    +0.000 C 
ATOM     23  C   UNL     1      22.180 -12.701   6.306  0.00  0.00    +0.000 C 
ENDBRANCH   3  12
BRANCH   1  25
ATOM     24  C   UNL     1      28.891  -2.678  11.214  0.00  0.00    +0.000 A 
ATOM     25  C   UNL     1      27.590  -6.897   7.214  0.00  0.00    +0.000 C 
ATOM     26  O   UNL     1      29.574  -4.661   7.147  0.00  0.00    +0.000 OA
ATOM     27  C   UNL     1      27.032  -4.231  11.209  0.00  0.00    +0.000 A 
ATOM     28  C   UNL     1      27.784  -3.237  11.840  0.00  0.00    +0.000 A 
ATOM     29  C   UNL     1      29.267  -3.089   9.941  0.00  0.00    +0.000 A 
ATOM     30  C   UNL     1      28.531  -4.086   9.301  0.00  0.00    +0.000 A 
ATOM     31  C   UNL     1      28.759  -4.856   8.059  0.00  0.00    +0.000 C 
ATOM     32  C   UNL     1      27.741  -5.910   8.101  0.00  0.00    +0.000 C 
ATOM     33  O   UNL     1      26.972  -5.752   9.238  0.00  0.00    +0.000 OA
ATOM     34  C   UNL     1      27.449  -4.669   9.953  0.00  0.00    +0.000 A 
BRANCH  27  35
ATOM     35  C   UNL     1      25.785  -4.714  11.886  0.00  0.00    +0.000 C 
ATOM     36  O   UNL     1      25.330  -4.095  12.857  0.00  0.00    +0.000 OA
ATOM     37  N   UNL     1      25.191  -5.795  11.387  0.00  0.00    +0.000 N 
ATOM     38  H   UNL     1      24.328  -6.142  11.806  0.00  0.00    +0.000 HD
ATOM     39  H   UNL     1      25.598  -6.277  10.585  0.00  0.00    +0.000 HD
ENDBRANCH  27  35
ENDBRANCH   1  25
TORSDOF 3
