REMARK  Name = 6qrc_ligand
REMARK  5 active torsions:
REMARK  status: ('A' for Active; 'I' for Inactive)
REMARK    1  A    between atoms: C_2  and  C_19
REMARK    2  A    between atoms: C_5  and  O_23
REMARK    3  A    between atoms: C_11  and  C_13
REMARK    4  A    between atoms: N_18  and  C_19
REMARK    5  A    between atoms: C_22  and  O_23
REMARK                            x       y       z     vdW  Elec       q    Type
REMARK                         _______ _______ _______ _____ _____    ______ ____
ROOT
ATOM      1  C   UNL     1     -24.420 -20.192  11.235  0.00  0.00    +0.000 A 
ATOM      2  C   UNL     1     -25.499 -21.042  10.821  0.00  0.00    +0.000 A 
ATOM      3  C   UNL     1     -21.972 -19.082  11.978  0.00  0.00    +0.000 A 
ATOM      4  C   UNL     1     -23.089 -18.250  11.936  0.00  0.00    +0.000 A 
ATOM      5  C   UNL     1     -24.325 -18.810  11.562  0.00  0.00    +0.000 A 
ATOM      6  C   UNL     1     -23.290 -21.004  11.268  0.00  0.00    +0.000 A 
ATOM      7  C   UNL     1     -22.049 -20.433  11.633  0.00  0.00    +0.000 A 
ATOM      8  N   UNL     1     -23.658 -22.268  10.914  0.00  0.00    +0.000 N 
ATOM      9  C   UNL     1     -24.987 -22.313  10.642  0.00  0.00    +0.000 A 
ENDROOT
BRANCH   3  14
ATOM     10  N   UNL     1     -17.964 -16.090  12.615  0.00  0.00    +0.000 N 
ATOM     11  C   UNL     1     -18.821 -17.191  12.521  0.00  0.00    +0.000 C 
ATOM     12  N   UNL     1     -18.450 -18.481  12.707  0.00  0.00    +0.000 NA
ATOM     13  N   UNL     1     -19.530 -19.279  12.543  0.00  0.00    +0.000 NA
ATOM     14  C   UNL     1     -20.593 -18.523  12.292  0.00  0.00    +0.000 C 
ATOM     15  C   UNL     1     -20.197 -17.195  12.228  0.00  0.00    +0.000 C 
ATOM     16  H   UNL     1     -16.979 -16.228  12.839  0.00  0.00    +0.000 HD
ATOM     17  H   UNL     1     -18.324 -15.149  12.460  0.00  0.00    +0.000 HD
ENDBRANCH   3  14
BRANCH   8  18
ATOM     18  C   UNL     1     -22.776 -23.388  10.824  0.00  0.00    +0.000 C 
BRANCH  18  19
ATOM     19  C   UNL     1     -22.154 -23.448   9.427  0.00  0.00    +0.000 A 
ATOM     20  C   UNL     1     -20.713 -24.520   7.826  0.00  0.00    +0.000 A 
ATOM     21  C   UNL     1     -22.468 -22.471   8.477  0.00  0.00    +0.000 A 
ATOM     22  C   UNL     1     -21.281 -24.469   9.110  0.00  0.00    +0.000 A 
ATOM     23  C   UNL     1     -21.027 -23.541   6.874  0.00  0.00    +0.000 A 
ATOM     24  C   UNL     1     -21.892 -22.527   7.185  0.00  0.00    +0.000 A 
BRANCH  24  26
ATOM     25  C   UNL     1     -23.319 -20.678   6.506  0.00  0.00    +0.000 C 
ATOM     26  O   UNL     1     -22.191 -21.536   6.221  0.00  0.00    +0.000 OA
ENDBRANCH  24  26
ENDBRANCH  18  19
ENDBRANCH   8  18
TORSDOF 4
