REMARK  Name = 6o9b_ligand
REMARK  38 active torsions:
REMARK  status: ('A' for Active; 'I' for Inactive)
REMARK    1  A    between atoms: N_1  and  CA_2
REMARK    2  A    between atoms: CA_2  and  C_3
REMARK    3  A    between atoms: CA_2  and  CB_5
REMARK    4  A    between atoms: CB_5  and  OG1_6
REMARK    5  A    between atoms: CB_5  and  CG2_7
REMARK    6  A    between atoms: N_8  and  CA_9
REMARK    7  A    between atoms: CA_9  and  C_10
REMARK    8  A    between atoms: CA_9  and  CB_12
REMARK    9  A    between atoms: CB_12  and  OG1_13
REMARK   10  A    between atoms: CB_12  and  CG2_14
REMARK   11  A    between atoms: N_15  and  CA_16
REMARK   12  A    between atoms: CA_16  and  C_17
REMARK   13  A    between atoms: CA_16  and  CB_19
REMARK   14  A    between atoms: CA_21  and  C_22
REMARK   15  A    between atoms: N_27  and  CA_28
REMARK   16  A    between atoms: CA_28  and  C_29
REMARK   17  A    between atoms: CA_28  and  CB_31
REMARK   18  A    between atoms: CB_31  and  OG_32
REMARK   19  A    between atoms: N_33  and  CA_34
REMARK   20  A    between atoms: CA_34  and  C_35
REMARK   21  A    between atoms: CA_34  and  CB_37
REMARK   22  A    between atoms: CB_37  and  CG_38
REMARK   23  A    between atoms: CG_38  and  CD1_39
REMARK   24  A    between atoms: CG_38  and  CD2_40
REMARK   25  A    between atoms: N_41  and  CA_42
REMARK   26  A    between atoms: CA_42  and  C_43
REMARK   27  A    between atoms: CA_42  and  CB_45
REMARK   28  A    between atoms: CB_45  and  OG_46
REMARK   29  A    between atoms: N_47  and  CA_48
REMARK   30  A    between atoms: CA_48  and  C_49
REMARK   31  A    between atoms: N_51  and  CA_52
REMARK   32  A    between atoms: CA_52  and  C_53
REMARK   33  A    between atoms: CA_52  and  CB_55
REMARK   34  A    between atoms: C_53  and  OXT_60
REMARK   35  A    between atoms: CB_55  and  CG_56
REMARK   36  A    between atoms: CG_56  and  CD_57
REMARK   37  A    between atoms: CD_57  and  CE_58
REMARK   38  A    between atoms: CE_58  and  NZ_59
REMARK                            x       y       z     vdW  Elec       q    Type
REMARK                         _______ _______ _______ _____ _____    ______ ____
ROOT
ATOM      1  CA  SER A   5      34.596  61.361  26.551  0.00  0.00    +0.000 C 
ENDROOT
BRANCH   1   4
ATOM      2  C   PRO A   4      34.235  61.060  28.976  0.00  0.00    +0.000 C 
ATOM      3  O   PRO A   4      33.838  59.923  28.863  0.00  0.00    +0.000 OA
ATOM      4  N   SER A   5      34.559  61.802  27.954  0.00  0.00    +0.000 N 
ATOM      5  H   SER A   5      34.809  62.773  28.144  0.00  0.00    +0.000 HD
BRANCH   2   9
ATOM      6  C   ALA A   3      31.998  61.540  30.776  0.00  0.00    +0.000 C 
ATOM      7  O   ALA A   3      31.760  62.203  29.771  0.00  0.00    +0.000 OA
ATOM      8  N   PRO A   4      33.274  61.352  31.208  0.00  0.00    +0.000 N 
ATOM      9  CA  PRO A   4      34.366  61.760  30.345  0.00  0.00    +0.000 C 
ATOM     10  CB  PRO A   4      35.664  61.289  31.063  0.00  0.00    +0.000 C 
ATOM     11  CG  PRO A   4      35.203  60.928  32.453  0.00  0.00    +0.000 C 
ATOM     12  CD  PRO A   4      33.738  60.516  32.317  0.00  0.00    +0.000 C 
BRANCH   6  13
ATOM     13  CA  ALA A   3      30.878  60.772  31.451  0.00  0.00    +0.000 C 
ATOM     14  CB  ALA A   3      30.727  59.413  30.813  0.00  0.00    +0.000 C 
BRANCH  13  17
ATOM     15  C   THR A   2      29.240  62.543  32.041  0.00  0.00    +0.000 C 
ATOM     16  O   THR A   2      29.947  62.991  32.914  0.00  0.00    +0.000 OA
ATOM     17  N   ALA A   3      29.592  61.510  31.308  0.00  0.00    +0.000 N 
ATOM     18  H   ALA A   3      28.939  61.192  30.592  0.00  0.00    +0.000 HD
BRANCH  15  19
ATOM     19  CA  THR A   2      27.839  63.129  31.771  0.00  0.00    +0.000 C 
BRANCH  19  22
ATOM     20  C   THR A   1      26.816  63.244  34.005  0.00  0.00    +0.000 C 
ATOM     21  O   THR A   1      26.798  61.981  34.176  0.00  0.00    +0.000 OA
ATOM     22  N   THR A   2      27.297  63.866  32.939  0.00  0.00    +0.000 N 
ATOM     23  H   THR A   2      27.295  64.886  32.920  0.00  0.00    +0.000 HD
BRANCH  20  24
ATOM     24  CA  THR A   1      26.252  64.170  35.083  0.00  0.00    +0.000 C 
BRANCH  24  25
ATOM     25  N   THR A   1      25.150  63.521  35.805  0.00  0.00    +0.000 N 
ATOM     26  H1  THR A   1      24.413  63.272  35.145  0.00  0.00    +0.000 HD
ATOM     27  H2  THR A   1      25.496  62.678  36.264  0.00  0.00    +0.000 HD
ATOM     28  H3  THR A   1      24.779  64.163  36.505  0.00  0.00    +0.000 HD
ENDBRANCH  24  25
BRANCH  24  29
ATOM     29  CB  THR A   1      27.429  64.590  35.997  0.00  0.00    +0.000 C 
ATOM     30  CG2 THR A   1      26.991  65.632  37.020  0.00  0.00    +0.000 C 
BRANCH  29  31
ATOM     31  OG1 THR A   1      27.972  63.429  36.609  0.00  0.00    +0.000 OA
ATOM     32  HG1 THR A   1      28.233  62.803  35.930  0.00  0.00    +0.000 HD
ENDBRANCH  29  31
ENDBRANCH  24  29
ENDBRANCH  20  24
ENDBRANCH  19  22
BRANCH  19  33
ATOM     33  CB  THR A   2      27.851  63.962  30.490  0.00  0.00    +0.000 C 
ATOM     34  CG2 THR A   2      26.464  64.282  29.993  0.00  0.00    +0.000 C 
BRANCH  33  35
ATOM     35  OG1 THR A   2      28.515  65.182  30.768  0.00  0.00    +0.000 OA
ATOM     36  HG1 THR A   2      28.534  65.722  29.975  0.00  0.00    +0.000 HD
ENDBRANCH  33  35
ENDBRANCH  19  33
ENDBRANCH  15  19
ENDBRANCH  13  17
ENDBRANCH   6  13
ENDBRANCH   2   9
ENDBRANCH   1   4
BRANCH   1  37
ATOM     37  C   SER A   5      35.631  60.216  26.390  0.00  0.00    +0.000 C 
ATOM     38  O   SER A   5      36.737  60.304  26.945  0.00  0.00    +0.000 OA
ATOM     39  N   LEU A   6      35.261  59.174  25.644  0.00  0.00    +0.000 N 
ATOM     40  H   LEU A   6      34.283  59.075  25.373  0.00  0.00    +0.000 HD
BRANCH  39  41
ATOM     41  CA  LEU A   6      36.239  58.164  25.205  0.00  0.00    +0.000 C 
BRANCH  41  42
ATOM     42  C   LEU A   6      37.158  58.805  24.152  0.00  0.00    +0.000 C 
ATOM     43  O   LEU A   6      36.824  59.796  23.553  0.00  0.00    +0.000 OA
ATOM     44  N   SER A   7      38.330  58.229  23.950  0.00  0.00    +0.000 N 
ATOM     45  H   SER A   7      38.626  57.494  24.592  0.00  0.00    +0.000 HD
BRANCH  44  46
ATOM     46  CA  SER A   7      39.233  58.596  22.841  0.00  0.00    +0.000 C 
BRANCH  46  47
ATOM     47  C   SER A   7      38.596  58.162  21.503  0.00  0.00    +0.000 C 
ATOM     48  O   SER A   7      37.546  57.418  21.470  0.00  0.00    +0.000 OA
ATOM     49  N   GLY A   8      39.204  58.605  20.409  0.00  0.00    +0.000 N 
ATOM     50  H   GLY A   8      40.112  59.060  20.502  0.00  0.00    +0.000 HD
BRANCH  49  51
ATOM     51  CA  GLY A   8      38.619  58.465  19.077  0.00  0.00    +0.000 C 
BRANCH  51  52
ATOM     52  C   GLY A   8      38.321  57.020  18.718  0.00  0.00    +0.000 C 
ATOM     53  O   GLY A   8      39.008  56.162  19.104  0.00  0.00    +0.000 OA
ATOM     54  N   LYS A   9      37.284  56.808  17.926  0.00  0.00    +0.000 N 
ATOM     55  H   LYS A   9      36.642  57.578  17.740  0.00  0.00    +0.000 HD
BRANCH  54  56
ATOM     56  CA  LYS A   9      37.024  55.507  17.306  0.00  0.00    +0.000 C 
BRANCH  56  57
ATOM     57  C   LYS A   9      38.051  55.191  16.196  0.00  0.00    +0.000 C 
ATOM     58  O   LYS A   9      38.014  53.994  15.767  0.00  0.00    +0.000 OA
BRANCH  57  59
ATOM     59  OXT LYS A   9      38.874  56.073  15.744  0.00  0.00    +0.000 OA
ATOM     60  HXT LYS A   9      38.734  56.905  16.202  0.00  0.00    +0.000 HD
ENDBRANCH  57  59
ENDBRANCH  56  57
BRANCH  56  61
ATOM     61  CB  LYS A   9      35.587  55.482  16.790  0.00  0.00    +0.000 C 
BRANCH  61  62
ATOM     62  CG  LYS A   9      34.563  55.575  17.891  0.00  0.00    +0.000 C 
BRANCH  62  63
ATOM     63  CD  LYS A   9      33.156  55.814  17.420  0.00  0.00    +0.000 C 
BRANCH  63  64
ATOM     64  CE  LYS A   9      32.210  55.484  18.538  0.00  0.00    +0.000 C 
BRANCH  64  65
ATOM     65  NZ  LYS A   9      30.854  56.058  18.356  0.00  0.00    +0.000 N 
ATOM     66  HZ1 LYS A   9      30.266  55.796  19.147  0.00  0.00    +0.000 HD
ATOM     67  HZ2 LYS A   9      30.921  57.074  18.302  0.00  0.00    +0.000 HD
ATOM     68  HZ3 LYS A   9      30.446  55.697  17.494  0.00  0.00    +0.000 HD
ENDBRANCH  64  65
ENDBRANCH  63  64
ENDBRANCH  62  63
ENDBRANCH  61  62
ENDBRANCH  56  61
ENDBRANCH  54  56
ENDBRANCH  51  52
ENDBRANCH  49  51
ENDBRANCH  46  47
BRANCH  46  69
ATOM     69  CB  SER A   7      40.600  57.937  23.030  0.00  0.00    +0.000 C 
BRANCH  69  70
ATOM     70  OG  SER A   7      40.470  56.511  23.121  0.00  0.00    +0.000 OA
ATOM     71  H   SER A   7      41.338  56.119  23.239  0.00  0.00    +0.000 HD
ENDBRANCH  69  70
ENDBRANCH  46  69
ENDBRANCH  44  46
ENDBRANCH  41  42
BRANCH  41  72
ATOM     72  CB  LEU A   6      35.511  56.947  24.636  0.00  0.00    +0.000 C 
BRANCH  72  73
ATOM     73  CG  LEU A   6      34.512  56.253  25.571  0.00  0.00    +0.000 C 
ATOM     74  CD1 LEU A   6      34.113  54.905  25.004  0.00  0.00    +0.000 C 
ATOM     75  CD2 LEU A   6      35.033  56.101  26.983  0.00  0.00    +0.000 C 
ENDBRANCH  72  73
ENDBRANCH  41  72
ENDBRANCH  39  41
ENDBRANCH   1  37
BRANCH   1  76
ATOM     76  CB  SER A   5      34.888  62.541  25.704  0.00  0.00    +0.000 C 
BRANCH  76  77
ATOM     77  OG  SER A   5      35.102  62.167  24.363  0.00  0.00    +0.000 OA
ATOM     78  H   SER A   5      35.288  62.950  23.840  0.00  0.00    +0.000 HD
ENDBRANCH  76  77
ENDBRANCH   1  76
TORSDOF 33
