REMARK  Name = 6os5_ligand
REMARK  5 active torsions:
REMARK  status: ('A' for Active; 'I' for Inactive)
REMARK    1  A    between atoms: N_1  and  CA_2
REMARK    2  A    between atoms: CA_2  and  C_3
REMARK    3  A    between atoms: CA_2  and  CB_5
REMARK    4  A    between atoms: C_3  and  OXT_15
REMARK    5  A    between atoms: CB_5  and  CG_6
REMARK                            x       y       z     vdW  Elec       q    Type
REMARK                         _______ _______ _______ _____ _____    ______ ____
ROOT
ATOM      1  CB  TRP A   1       0.775  30.178  22.246  0.00  0.00    +0.000 C 
ENDROOT
BRANCH   1   2
ATOM      2  CG  TRP A   1       0.528  30.301  23.711  0.00  0.00    +0.000 C 
ATOM      3  CD1 TRP A   1       0.880  31.348  24.517  0.00  0.00    +0.000 C 
ATOM      4  CD2 TRP A   1      -0.147  29.359  24.551  0.00  0.00    +0.000 C 
ATOM      5  NE1 TRP A   1       0.447  31.123  25.800  0.00  0.00    +0.000 NA
ATOM      6  CE2 TRP A   1      -0.173  29.903  25.851  0.00  0.00    +0.000 C 
ATOM      7  CE3 TRP A   1      -0.723  28.110  24.331  0.00  0.00    +0.000 C 
ATOM      8  CZ2 TRP A   1      -0.758  29.247  26.920  0.00  0.00    +0.000 C 
ATOM      9  CZ3 TRP A   1      -1.309  27.456  25.399  0.00  0.00    +0.000 C 
ATOM     10  CH2 TRP A   1      -1.318  28.027  26.679  0.00  0.00    +0.000 C 
ENDBRANCH   1   2
BRANCH   1  11
ATOM     11  CA  TRP A   1      -0.385  30.712  21.384  0.00  0.00    +0.000 C 
BRANCH  11  12
ATOM     12  N   TRP A   1      -0.832  32.043  21.823  0.00  0.00    +0.000 N 
ATOM     13  H1  TRP A   1      -1.598  32.357  21.227  0.00  0.00    +0.000 HD
ATOM     14  H2  TRP A   1      -1.151  31.991  22.790  0.00  0.00    +0.000 HD
ATOM     15  H3  TRP A   1      -0.055  32.701  21.755  0.00  0.00    +0.000 HD
ENDBRANCH  11  12
BRANCH  11  16
ATOM     16  C   TRP A   1      -1.599  29.787  21.436  0.00  0.00    +0.000 C 
ATOM     17  O   TRP A   1      -1.543  28.637  20.980  0.00  0.00    +0.000 OA
BRANCH  16  18
ATOM     18  OXT TRP A   1      -2.674  30.193  21.919  0.00  0.00    +0.000 OA
ATOM     19  HXT TRP A   1      -2.564  31.095  22.230  0.00  0.00    +0.000 HD
ENDBRANCH  16  18
ENDBRANCH  11  16
ENDBRANCH   1  11
TORSDOF 5
