REMARK  Name = 6st3_ligand
REMARK  5 active torsions:
REMARK  status: ('A' for Active; 'I' for Inactive)
REMARK    1  A    between atoms: C_1  and  C_2
REMARK    2  A    between atoms: C_9  and  C_10
REMARK    3  A    between atoms: C_9  and  N_26
REMARK    4  A    between atoms: C_15  and  O_29
REMARK    5  A    between atoms: C_16  and  O_29
REMARK                            x       y       z     vdW  Elec       q    Type
REMARK                         _______ _______ _______ _____ _____    ______ ____
ROOT
ATOM      1  C   UNL     1       6.614  22.694  28.726  0.00  0.00    +0.000 C 
ATOM      2  N   UNL     1       7.457  21.538  28.814  0.00  0.00    +0.000 N 
ATOM      3  O   UNL     1       6.359  23.291  29.713  0.00  0.00    +0.000 OA
ATOM      4  H   UNL     1       7.711  21.011  27.978  0.00  0.00    +0.000 HD
ENDROOT
BRANCH   1   5
ATOM      5  C   UNL     1       6.023  23.119  27.387  0.00  0.00    +0.000 A 
ATOM      6  C   UNL     1       5.291  24.285  27.260  0.00  0.00    +0.000 A 
ATOM      7  C   UNL     1       4.907  23.824  25.050  0.00  0.00    +0.000 A 
ATOM      8  C   UNL     1       3.254  25.443  22.324  0.00  0.00    +0.000 A 
ATOM      9  C   UNL     1       3.618  24.225  21.756  0.00  0.00    +0.000 A 
ATOM     10  C   UNL     1       4.274  23.492  22.710  0.00  0.00    +0.000 A 
ATOM     11  C   UNL     1       6.130  22.315  26.258  0.00  0.00    +0.000 A 
ATOM     12  N   UNL     1       4.769  24.605  26.093  0.00  0.00    +0.000 NA
ATOM     13  N   UNL     1       4.304  24.226  23.796  0.00  0.00    +0.000 N 
ATOM     14  N   UNL     1       3.680  25.435  23.590  0.00  0.00    +0.000 NA
ATOM     15  N   UNL     1       5.583  22.690  25.111  0.00  0.00    +0.000 N 
ATOM     16  O   UNL     1       6.844  21.124  26.333  0.00  0.00    +0.000 OA
ATOM     17  H   UNL     1       5.683  22.107  24.280  0.00  0.00    +0.000 HD
ENDBRANCH   1   5
BRANCH   2  18
ATOM     18  C   UNL     1       7.940  21.136  30.121  0.00  0.00    +0.000 C 
BRANCH  18  19
ATOM     19  C   UNL     1       9.189  21.863  30.569  0.00  0.00    +0.000 A 
ATOM     20  C   UNL     1       9.794  21.445  31.739  0.00  0.00    +0.000 A 
ATOM     21  C   UNL     1      10.936  22.086  32.175  0.00  0.00    +0.000 A 
ATOM     22  C   UNL     1       9.700  22.911  29.832  0.00  0.00    +0.000 A 
ATOM     23  C   UNL     1      10.844  23.552  30.279  0.00  0.00    +0.000 A 
ATOM     24  C   UNL     1      11.455  23.143  31.451  0.00  0.00    +0.000 A 
BRANCH  24  25
ATOM     25  O   UNL     1      12.617  23.804  31.857  0.00  0.00    +0.000 OA
BRANCH  25  26
ATOM     26  C   UNL     1      12.792  23.863  33.249  0.00  0.00    +0.000 A 
ATOM     27  C   UNL     1      13.962  23.372  33.785  0.00  0.00    +0.000 A 
ATOM     28  C   UNL     1      14.173  23.428  35.148  0.00  0.00    +0.000 A 
ATOM     29  C   UNL     1      13.210  23.979  35.975  0.00  0.00    +0.000 A 
ATOM     30  C   UNL     1      12.034  24.476  35.440  0.00  0.00    +0.000 A 
ATOM     31  C   UNL     1      11.827  24.423  34.070  0.00  0.00    +0.000 A 
ENDBRANCH  25  26
ENDBRANCH  24  25
ENDBRANCH  18  19
ENDBRANCH   2  18
TORSDOF 5
