REMARK  Name = 6mji_ligand
REMARK  54 active torsions:
REMARK  status: ('A' for Active; 'I' for Inactive)
REMARK    1  A    between atoms: C_1  and  O_27
REMARK    2  A    between atoms: C_2  and  C_3
REMARK    3  A    between atoms: C_2  and  O_31
REMARK    4  A    between atoms: C_4  and  O_32
REMARK    5  A    between atoms: C_5  and  O_29
REMARK    6  A    between atoms: C_6  and  O_28
REMARK    7  A    between atoms: C_7  and  C_8
REMARK    8  A    between atoms: C_8  and  C_9
REMARK    9  A    between atoms: C_9  and  C_10
REMARK   10  A    between atoms: C_10  and  C_11
REMARK   11  A    between atoms: C_11  and  C_12
REMARK   12  A    between atoms: C_12  and  C_13
REMARK   13  A    between atoms: C_13  and  C_14
REMARK   14  A    between atoms: C_14  and  C_15
REMARK   15  A    between atoms: C_15  and  C_16
REMARK   16  A    between atoms: C_16  and  C_17
REMARK   17  A    between atoms: C_17  and  C_18
REMARK   18  A    between atoms: C_18  and  C_19
REMARK   19  A    between atoms: C_19  and  C_20
REMARK   20  A    between atoms: C_20  and  C_21
REMARK   21  A    between atoms: C_21  and  O_22
REMARK   22  A    between atoms: C_21  and  C_23
REMARK   23  A    between atoms: C_23  and  O_24
REMARK   24  A    between atoms: C_23  and  C_25
REMARK   25  A    between atoms: C_25  and  C_26
REMARK   26  A    between atoms: C_25  and  N_37
REMARK   27  A    between atoms: C_26  and  O_27
REMARK   28  A    between atoms: O_32  and  C_33
REMARK   29  A    between atoms: C_33  and  C_34
REMARK   30  A    between atoms: C_38  and  C_40
REMARK   31  A    between atoms: C_40  and  C_41
REMARK   32  A    between atoms: C_41  and  C_42
REMARK   33  A    between atoms: C_42  and  C_43
REMARK   34  A    between atoms: C_43  and  C_44
REMARK   35  A    between atoms: C_44  and  C_45
REMARK   36  A    between atoms: C_45  and  C_46
REMARK   37  A    between atoms: C_46  and  C_47
REMARK   38  A    between atoms: C_47  and  C_48
REMARK   39  A    between atoms: C_48  and  C_49
REMARK   40  A    between atoms: C_49  and  C_50
REMARK   41  A    between atoms: C_50  and  C_51
REMARK   42  A    between atoms: C_51  and  C_52
REMARK   43  A    between atoms: C_52  and  C_53
REMARK   44  A    between atoms: C_53  and  C_54
REMARK   45  A    between atoms: C_54  and  C_55
REMARK   46  A    between atoms: C_55  and  C_56
REMARK   47  A    between atoms: C_56  and  C_57
REMARK   48  A    between atoms: C_57  and  C_58
REMARK   49  A    between atoms: C_58  and  C_59
REMARK   50  A    between atoms: C_59  and  C_60
REMARK   51  A    between atoms: C_60  and  C_61
REMARK   52  A    between atoms: C_61  and  C_62
REMARK   53  A    between atoms: C_62  and  C_63
REMARK   54  A    between atoms: C_63  and  C_64
REMARK                            x       y       z     vdW  Elec       q    Type
REMARK                         _______ _______ _______ _____ _____    ______ ____
ROOT
ATOM      1  C   UNL     1      92.731 218.835 321.262  0.00  0.00    +0.000 C 
ENDROOT
BRANCH   1   2
ATOM      2  N   UNL     1      93.149 217.439 321.141  0.00  0.00    +0.000 N 
ATOM      3  C   UNL     1      92.818 216.565 322.089  0.00  0.00    +0.000 C 
ATOM      4  O   UNL     1      92.156 216.861 323.080  0.00  0.00    +0.000 OA
ATOM      5  H   UNL     1      93.692 217.136 320.333  0.00  0.00    +0.000 HD
BRANCH   3   6
ATOM      6  C   UNL     1      93.354 215.150 321.879  0.00  0.00    +0.000 C 
BRANCH   6   7
ATOM      7  C   UNL     1      92.265 214.113 322.113  0.00  0.00    +0.000 C 
BRANCH   7   8
ATOM      8  C   UNL     1      91.291 214.053 320.941  0.00  0.00    +0.000 C 
BRANCH   8   9
ATOM      9  C   UNL     1      90.148 213.147 321.397  0.00  0.00    +0.000 C 
BRANCH   9  10
ATOM     10  C   UNL     1      89.160 212.852 320.267  0.00  0.00    +0.000 C 
BRANCH  10  11
ATOM     11  C   UNL     1      88.011 212.075 320.918  0.00  0.00    +0.000 C 
BRANCH  11  12
ATOM     12  C   UNL     1      86.972 211.654 319.891  0.00  0.00    +0.000 C 
BRANCH  12  13
ATOM     13  C   UNL     1      85.843 210.885 320.608  0.00  0.00    +0.000 C 
BRANCH  13  14
ATOM     14  C   UNL     1      84.724 211.865 320.981  0.00  0.00    +0.000 C 
BRANCH  14  15
ATOM     15  C   UNL     1      83.700 211.221 321.922  0.00  0.00    +0.000 C 
BRANCH  15  16
ATOM     16  C   UNL     1      83.534 212.110 323.156  0.00  0.00    +0.000 C 
BRANCH  16  17
ATOM     17  C   UNL     1      82.334 211.667 323.999  0.00  0.00    +0.000 C 
BRANCH  17  18
ATOM     18  C   UNL     1      82.686 210.438 324.834  0.00  0.00    +0.000 C 
BRANCH  18  19
ATOM     19  C   UNL     1      82.962 210.813 326.295  0.00  0.00    +0.000 C 
BRANCH  19  20
ATOM     20  C   UNL     1      82.740 209.594 327.203  0.00  0.00    +0.000 C 
BRANCH  20  21
ATOM     21  C   UNL     1      83.776 208.511 326.907  0.00  0.00    +0.000 C 
BRANCH  21  22
ATOM     22  C   UNL     1      83.489 207.255 327.749  0.00  0.00    +0.000 C 
BRANCH  22  23
ATOM     23  C   UNL     1      84.797 206.632 328.248  0.00  0.00    +0.000 C 
BRANCH  23  24
ATOM     24  C   UNL     1      85.211 205.417 327.414  0.00  0.00    +0.000 C 
BRANCH  24  25
ATOM     25  C   UNL     1      85.888 205.825 326.105  0.00  0.00    +0.000 C 
BRANCH  25  26
ATOM     26  C   UNL     1      87.267 205.158 325.995  0.00  0.00    +0.000 C 
BRANCH  26  27
ATOM     27  C   UNL     1      87.500 204.642 324.571  0.00  0.00    +0.000 C 
BRANCH  27  28
ATOM     28  C   UNL     1      87.797 205.794 323.614  0.00  0.00    +0.000 C 
BRANCH  28  29
ATOM     29  C   UNL     1      86.744 205.863 322.520  0.00  0.00    +0.000 C 
ATOM     30  C   UNL     1      87.108 206.988 321.542  0.00  0.00    +0.000 C 
ENDBRANCH  28  29
ENDBRANCH  27  28
ENDBRANCH  26  27
ENDBRANCH  25  26
ENDBRANCH  24  25
ENDBRANCH  23  24
ENDBRANCH  22  23
ENDBRANCH  21  22
ENDBRANCH  20  21
ENDBRANCH  19  20
ENDBRANCH  18  19
ENDBRANCH  17  18
ENDBRANCH  16  17
ENDBRANCH  15  16
ENDBRANCH  14  15
ENDBRANCH  13  14
ENDBRANCH  12  13
ENDBRANCH  11  12
ENDBRANCH  10  11
ENDBRANCH   9  10
ENDBRANCH   8   9
ENDBRANCH   7   8
ENDBRANCH   6   7
ENDBRANCH   3   6
ENDBRANCH   1   2
BRANCH   1  31
ATOM     31  C   UNL     1      92.718 219.505 319.887  0.00  0.00    +0.000 C 
BRANCH  31  32
ATOM     32  O   UNL     1      92.302 220.859 320.052  0.00  0.00    +0.000 OA
ATOM     33  H   UNL     1      92.885 221.298 320.675  0.00  0.00    +0.000 HD
ENDBRANCH  31  32
BRANCH  31  34
ATOM     34  C   UNL     1      91.791 218.795 318.892  0.00  0.00    +0.000 C 
BRANCH  34  35
ATOM     35  O   UNL     1      91.897 219.482 317.630  0.00  0.00    +0.000 OA
ATOM     36  H   UNL     1      92.812 219.478 317.341  0.00  0.00    +0.000 HD
ENDBRANCH  34  35
BRANCH  34  37
ATOM     37  C   UNL     1      90.337 218.786 319.379  0.00  0.00    +0.000 C 
BRANCH  37  38
ATOM     38  C   UNL     1      89.362 218.401 318.247  0.00  0.00    +0.000 C 
BRANCH  38  39
ATOM     39  C   UNL     1      89.689 217.009 317.676  0.00  0.00    +0.000 C 
BRANCH  39  40
ATOM     40  C   UNL     1      88.456 216.403 316.981  0.00  0.00    +0.000 C 
BRANCH  40  41
ATOM     41  C   UNL     1      88.235 217.063 315.617  0.00  0.00    +0.000 C 
BRANCH  41  42
ATOM     42  C   UNL     1      87.146 216.294 314.849  0.00  0.00    +0.000 C 
BRANCH  42  43
ATOM     43  C   UNL     1      87.136 216.712 313.368  0.00  0.00    +0.000 C 
BRANCH  43  44
ATOM     44  C   UNL     1      86.177 217.893 313.193  0.00  0.00    +0.000 C 
BRANCH  44  45
ATOM     45  C   UNL     1      86.174 218.399 311.741  0.00  0.00    +0.000 C 
BRANCH  45  46
ATOM     46  C   UNL     1      85.587 219.818 311.767  0.00  0.00    +0.000 C 
BRANCH  46  47
ATOM     47  C   UNL     1      85.213 220.303 310.367  0.00  0.00    +0.000 C 
BRANCH  47  48
ATOM     48  C   UNL     1      84.209 221.476 310.462  0.00  0.00    +0.000 C 
BRANCH  48  50
ATOM     49  C   UNL     1      83.901 223.960 310.282  0.00  0.00    +0.000 C 
ATOM     50  C   UNL     1      84.911 222.808 310.234  0.00  0.00    +0.000 C 
ENDBRANCH  48  50
ENDBRANCH  47  48
ENDBRANCH  46  47
ENDBRANCH  45  46
ENDBRANCH  44  45
ENDBRANCH  43  44
ENDBRANCH  42  43
ENDBRANCH  41  42
ENDBRANCH  40  41
ENDBRANCH  39  40
ENDBRANCH  38  39
ENDBRANCH  37  38
ENDBRANCH  34  37
ENDBRANCH  31  34
ENDBRANCH   1  31
BRANCH   1  51
ATOM     51  C   UNL     1      93.744 219.547 322.172  0.00  0.00    +0.000 C 
BRANCH  51  52
ATOM     52  O   UNL     1      95.022 219.411 321.565  0.00  0.00    +0.000 OA
BRANCH  52  53
ATOM     53  C   UNL     1      96.093 220.008 322.287  0.00  0.00    +0.000 C 
ATOM     54  C   UNL     1      96.567 217.961 323.416  0.00  0.00    +0.000 C 
ATOM     55  C   UNL     1      97.847 217.744 322.612  0.00  0.00    +0.000 C 
ATOM     56  C   UNL     1      97.697 218.432 321.261  0.00  0.00    +0.000 C 
ATOM     57  C   UNL     1      97.334 219.894 321.439  0.00  0.00    +0.000 C 
ATOM     58  O   UNL     1      96.310 219.364 323.554  0.00  0.00    +0.000 OA
BRANCH  57  59
ATOM     59  O   UNL     1      97.079 220.490 320.151  0.00  0.00    +0.000 OA
ATOM     60  H   UNL     1      96.850 221.415 320.267  0.00  0.00    +0.000 HD
ENDBRANCH  57  59
BRANCH  56  61
ATOM     61  O   UNL     1      98.920 218.363 320.547  0.00  0.00    +0.000 OA
ATOM     62  H   UNL     1      99.166 217.443 320.425  0.00  0.00    +0.000 HD
ENDBRANCH  56  61
BRANCH  54  63
ATOM     63  C   UNL     1      96.672 217.401 324.840  0.00  0.00    +0.000 C 
BRANCH  63  64
ATOM     64  O   UNL     1      96.839 215.987 324.765  0.00  0.00    +0.000 OA
ATOM     65  H   UNL     1      96.906 215.626 325.652  0.00  0.00    +0.000 HD
ENDBRANCH  63  64
ENDBRANCH  54  63
BRANCH  55  66
ATOM     66  O   UNL     1      98.974 218.321 323.287  0.00  0.00    +0.000 OA
BRANCH  66  67
ATOM     67  C   UNL     1      99.767 217.423 324.061  0.00  0.00    +0.000 C 
BRANCH  67  68
ATOM     68  C   UNL     1     101.011 217.015 323.282  0.00  0.00    +0.000 C 
ATOM     69  C   UNL     1     100.952 215.719 322.495  0.00  0.00    +0.000 C 
ATOM     70  C   UNL     1     101.724 215.763 323.795  0.00  0.00    +0.000 C 
ENDBRANCH  67  68
ENDBRANCH  66  67
ENDBRANCH  55  66
ENDBRANCH  52  53
ENDBRANCH  51  52
ENDBRANCH   1  51
TORSDOF 52
