REMARK  Name = 6cjj_ligand
REMARK  12 active torsions:
REMARK  status: ('A' for Active; 'I' for Inactive)
REMARK    1  A    between atoms: P_1  and  O_3
REMARK    2  A    between atoms: P_1  and  O_4
REMARK    3  A    between atoms: P_1  and  O_8
REMARK    4  A    between atoms: P_5  and  O_7
REMARK    5  A    between atoms: P_5  and  O_8
REMARK    6  A    between atoms: P_5  and  O_9
REMARK    7  A    between atoms: O_9  and  C_10
REMARK    8  A    between atoms: C_10  and  C_11
REMARK    9  A    between atoms: C_13  and  O_14
REMARK   10  A    between atoms: C_15  and  O_16
REMARK   11  A    between atoms: C_17  and  N_18
REMARK   12  A    between atoms: C_22  and  N_23
REMARK                            x       y       z     vdW  Elec       q    Type
REMARK                         _______ _______ _______ _____ _____    ______ ____
ROOT
ATOM      1  C   UNL     1      97.559  38.705 104.598  0.00  0.00    +0.000 C 
ATOM      2  O   UNL     1      96.182  38.483 104.940  0.00  0.00    +0.000 OA
ATOM      3  C   UNL     1      97.506  39.461 103.271  0.00  0.00    +0.000 C 
ATOM      4  C   UNL     1      96.319  38.802 102.590  0.00  0.00    +0.000 C 
ATOM      5  C   UNL     1      95.386  38.511 103.752  0.00  0.00    +0.000 C 
ENDROOT
BRANCH   5   6
ATOM      6  N   UNL     1      94.363  39.571 103.924  0.00  0.00    +0.000 N 
ATOM      7  C   UNL     1      94.301  40.472 104.940  0.00  0.00    +0.000 A 
ATOM      8  N   UNL     1      93.205  41.261 104.802  0.00  0.00    +0.000 NA
ATOM      9  C   UNL     1      92.568  40.846 103.679  0.00  0.00    +0.000 A 
ATOM     10  C   UNL     1      91.368  41.249 102.944  0.00  0.00    +0.000 A 
ATOM     11  N   UNL     1      91.037  40.565 101.831  0.00  0.00    +0.000 NA
ATOM     12  C   UNL     1      91.787  39.547 101.358  0.00  0.00    +0.000 A 
ATOM     13  N   UNL     1      92.912  39.119 101.972  0.00  0.00    +0.000 NA
ATOM     14  C   UNL     1      93.329  39.731 103.113  0.00  0.00    +0.000 A 
BRANCH  10  15
ATOM     15  N   UNL     1      90.640  42.280 103.396  0.00  0.00    +0.000 N 
ATOM     16  H   UNL     1      90.925  42.773 104.242  0.00  0.00    +0.000 HD
ATOM     17  H   UNL     1      89.802  42.571 102.894  0.00  0.00    +0.000 HD
ENDBRANCH  10  15
ENDBRANCH   5   6
BRANCH   3  18
ATOM     18  O   UNL     1      98.696  39.374 102.468  0.00  0.00    +0.000 OA
ATOM     19  H   UNL     1      98.572  39.876 101.659  0.00  0.00    +0.000 HD
ENDBRANCH   3  18
BRANCH   4  20
ATOM     20  O   UNL     1      96.707  37.560 101.962  0.00  0.00    +0.000 OA
ATOM     21  H   UNL     1      95.942  37.164 101.540  0.00  0.00    +0.000 HD
ENDBRANCH   4  20
BRANCH   1  22
ATOM     22  C   UNL     1      98.255  39.409 105.757  0.00  0.00    +0.000 C 
BRANCH  22  23
ATOM     23  O   UNL     1      97.913  40.789 105.745  0.00  0.00    +0.000 OA
BRANCH  23  24
ATOM     24  P   UNL     1      98.907  41.818 106.476  0.00  0.00    +0.000 P 
ATOM     25  O   UNL     1      98.298  43.193 106.490  0.00  0.00    +0.000 OA
BRANCH  24  26
ATOM     26  O   UNL     1      99.280  41.193 107.800  0.00  0.00    +0.000 OA
ATOM     27  H   UNL     1      99.655  40.323 107.647  0.00  0.00    +0.000 HD
ENDBRANCH  24  26
BRANCH  24  28
ATOM     28  O   UNL     1     100.215  41.760 105.524  0.00  0.00    +0.000 OA
BRANCH  28  29
ATOM     29  P   UNL     1     100.341  42.337 104.014  0.00  0.00    +0.000 P 
ATOM     30  O   UNL     1     100.376  41.069 103.203  0.00  0.00    +0.000 OA
BRANCH  29  31
ATOM     31  O   UNL     1     101.645  43.128 104.051  0.00  0.00    +0.000 OA
ATOM     32  H   UNL     1     101.526  43.914 104.588  0.00  0.00    +0.000 HD
ENDBRANCH  29  31
BRANCH  29  33
ATOM     33  O   UNL     1      99.120  43.191 103.715  0.00  0.00    +0.000 OA
ATOM     34  H   UNL     1      99.145  43.984 104.255  0.00  0.00    +0.000 HD
ENDBRANCH  29  33
ENDBRANCH  28  29
ENDBRANCH  24  28
ENDBRANCH  23  24
ENDBRANCH  22  23
ENDBRANCH   1  22
TORSDOF 12
