REMARK  Name = 5zlf_ligand
REMARK  10 active torsions:
REMARK  status: ('A' for Active; 'I' for Inactive)
REMARK    1  A    between atoms: C_13  and  C_14
REMARK    2  A    between atoms: C_19  and  C_20
REMARK    3  A    between atoms: C_20  and  C_21
REMARK    4  A    between atoms: C_21  and  P_22
REMARK    5  A    between atoms: C_21  and  P_26
REMARK    6  A    between atoms: C_21  and  O_30
REMARK    7  A    between atoms: P_22  and  O_23
REMARK    8  A    between atoms: P_22  and  O_25
REMARK    9  A    between atoms: P_26  and  O_28
REMARK   10  A    between atoms: P_26  and  O_29
REMARK                            x       y       z     vdW  Elec       q    Type
REMARK                         _______ _______ _______ _____ _____    ______ ____
ROOT
ATOM      1  C   UNL     1      61.171  -2.118  23.114  0.00  0.00    +0.000 A 
ATOM      2  C   UNL     1      60.954  -1.043  22.265  0.00  0.00    +0.000 A 
ATOM      3  C   UNL     1      60.229  -2.427  24.082  0.00  0.00    +0.000 A 
ATOM      4  C   UNL     1      59.079  -1.656  24.187  0.00  0.00    +0.000 A 
ATOM      5  C   UNL     1      58.869  -0.581  23.333  0.00  0.00    +0.000 A 
ATOM      6  C   UNL     1      59.807  -0.273  22.358  0.00  0.00    +0.000 A 
ENDROOT
BRANCH   1  19
ATOM      7  C   UNL     1      64.841  -4.439  24.973  0.00  0.00    +0.000 A 
ATOM      8  C   UNL     1      66.011  -5.155  25.274  0.00  0.00    +0.000 A 
ATOM      9  C   UNL     1      66.338  -5.432  26.593  0.00  0.00    +0.000 A 
ATOM     10  C   UNL     1      65.502  -5.002  27.616  0.00  0.00    +0.000 A 
ATOM     11  C   UNL     1      64.346  -4.294  27.318  0.00  0.00    +0.000 A 
ATOM     12  C   UNL     1      64.016  -4.012  25.982  0.00  0.00    +0.000 A 
ATOM     13  O   UNL     1      62.946  -3.340  25.402  0.00  0.00    +0.000 OA
ATOM     14  C   UNL     1      63.115  -3.351  24.023  0.00  0.00    +0.000 A 
ATOM     15  C   UNL     1      64.283  -4.028  23.759  0.00  0.00    +0.000 A 
ATOM     16  C   UNL     1      64.714  -4.197  22.437  0.00  0.00    +0.000 A 
ATOM     17  C   UNL     1      63.970  -3.689  21.386  0.00  0.00    +0.000 A 
ATOM     18  C   UNL     1      62.792  -3.006  21.651  0.00  0.00    +0.000 A 
ATOM     19  C   UNL     1      62.349  -2.838  22.954  0.00  0.00    +0.000 A 
ENDBRANCH   1  19
BRANCH   6  20
ATOM     20  C   UNL     1      59.625   0.908  21.395  0.00  0.00    +0.000 C 
BRANCH  20  21
ATOM     21  C   UNL     1      58.277   0.972  20.665  0.00  0.00    +0.000 C 
BRANCH  21  22
ATOM     22  P   UNL     1      58.351   2.350  19.412  0.00  0.00    +0.000 P 
ATOM     23  O   UNL     1      58.842   3.619  20.066  0.00  0.00    +0.000 OA
BRANCH  22  24
ATOM     24  O   UNL     1      59.292   1.968  18.294  0.00  0.00    +0.000 OA
ATOM     25  H   UNL     1      58.981   1.161  17.877  0.00  0.00    +0.000 HD
ENDBRANCH  22  24
BRANCH  22  26
ATOM     26  O   UNL     1      56.972   2.583  18.840  0.00  0.00    +0.000 OA
ATOM     27  H   UNL     1      56.659   1.776  18.424  0.00  0.00    +0.000 HD
ENDBRANCH  22  26
ENDBRANCH  21  22
BRANCH  21  28
ATOM     28  P   UNL     1      57.877  -0.599  19.744  0.00  0.00    +0.000 P 
ATOM     29  O   UNL     1      58.973  -0.899  18.750  0.00  0.00    +0.000 OA
BRANCH  28  30
ATOM     30  O   UNL     1      57.725  -1.761  20.696  0.00  0.00    +0.000 OA
ATOM     31  H   UNL     1      57.028  -1.567  21.327  0.00  0.00    +0.000 HD
ENDBRANCH  28  30
BRANCH  28  32
ATOM     32  O   UNL     1      56.576  -0.404  19.000  0.00  0.00    +0.000 OA
ATOM     33  H   UNL     1      55.875  -0.213  19.628  0.00  0.00    +0.000 HD
ENDBRANCH  28  32
ENDBRANCH  21  28
BRANCH  21  34
ATOM     34  O   UNL     1      57.255   1.259  21.580  0.00  0.00    +0.000 OA
ATOM     35  H   UNL     1      56.415   1.298  21.118  0.00  0.00    +0.000 HD
ENDBRANCH  21  34
ENDBRANCH  20  21
ENDBRANCH   6  20
TORSDOF 10
