REMARK  Name = 6g2c_ligand
REMARK  5 active torsions:
REMARK  status: ('A' for Active; 'I' for Inactive)
REMARK    1  A    between atoms: C_4  and  C_5
REMARK    2  A    between atoms: C_6  and  C_8
REMARK    3  A    between atoms: C_9  and  C_19
REMARK    4  A    between atoms: N_13  and  C_14
REMARK    5  A    between atoms: C_15  and  C_18
REMARK                            x       y       z     vdW  Elec       q    Type
REMARK                         _______ _______ _______ _____ _____    ______ ____
ROOT
ATOM      1  C   UNL     1      -3.359   8.046 -19.835  0.00  0.00    +0.000 A 
ATOM      2  C   UNL     1      -4.000   7.354 -20.853  0.00  0.00    +0.000 A 
ATOM      3  C   UNL     1      -3.940   6.020 -19.173  0.00  0.00    +0.000 A 
ATOM      4  N   UNL     1      -4.349   6.083 -20.420  0.00  0.00    +0.000 NA
ATOM      5  N   UNL     1      -3.279   7.125 -18.763  0.00  0.00    +0.000 N 
ATOM      6  C   UNL     1      -2.720   7.346 -17.433  0.00  0.00    +0.000 C 
ENDROOT
BRANCH   2   7
ATOM      7  C   UNL     1      -4.375   7.802 -22.177  0.00  0.00    +0.000 A 
ATOM      8  C   UNL     1      -3.558   8.415 -23.184  0.00  0.00    +0.000 A 
ATOM      9  C   UNL     1      -5.625   7.746 -22.738  0.00  0.00    +0.000 A 
ATOM     10  O   UNL     1      -5.573   8.243 -23.988  0.00  0.00    +0.000 OA
ATOM     11  N   UNL     1      -4.254   8.690 -24.250  0.00  0.00    +0.000 NA
ATOM     12  C   UNL     1      -6.946   7.238 -22.292  0.00  0.00    +0.000 C 
ATOM     13  C   UNL     1      -2.103   8.750 -23.156  0.00  0.00    +0.000 C 
ENDBRANCH   2   7
BRANCH   1  17
ATOM     14  N   UNL     1      -1.654  11.967 -19.812  0.00  0.00    +0.000 NA
ATOM     15  C   UNL     1      -0.931  10.889 -19.483  0.00  0.00    +0.000 A 
ATOM     16  C   UNL     1      -1.437   9.601 -19.476  0.00  0.00    +0.000 A 
ATOM     17  C   UNL     1      -2.775   9.404 -19.802  0.00  0.00    +0.000 A 
ATOM     18  C   UNL     1      -3.534  10.515 -20.164  0.00  0.00    +0.000 A 
ATOM     19  C   UNL     1      -2.936  11.762 -20.149  0.00  0.00    +0.000 A 
ENDBRANCH   1  17
TORSDOF 2
