REMARK  Name = 6oxy_ligand
REMARK  19 active torsions:
REMARK  status: ('A' for Active; 'I' for Inactive)
REMARK    1  A    between atoms: C_1  and  C_14
REMARK    2  A    between atoms: C_2  and  C_16
REMARK    3  A    between atoms: C_2  and  N_30
REMARK    4  A    between atoms: C_3  and  O_36
REMARK    5  A    between atoms: C_7  and  C_28
REMARK    6  A    between atoms: C_10  and  S_41
REMARK    7  A    between atoms: C_13  and  C_14
REMARK    8  A    between atoms: C_13  and  N_30
REMARK    9  A    between atoms: C_14  and  C_15
REMARK   10  A    between atoms: C_16  and  C_17
REMARK   11  A    between atoms: C_16  and  O_34
REMARK   12  A    between atoms: C_17  and  C_21
REMARK   13  A    between atoms: C_17  and  N_31
REMARK   14  A    between atoms: C_18  and  O_36
REMARK   15  A    between atoms: C_21  and  C_22
REMARK   16  A    between atoms: C_28  and  C_29
REMARK   17  A    between atoms: C_28  and  O_39
REMARK   18  A    between atoms: C_29  and  O_40
REMARK   19  A    between atoms: N_30  and  S_41
REMARK                            x       y       z     vdW  Elec       q    Type
REMARK                         _______ _______ _______ _____ _____    ______ ____
ROOT
ATOM      1  C   UNL     1      71.052  57.713  14.940  0.00  0.00    +0.000 C 
ENDROOT
BRANCH   1   2
ATOM      2  O   UNL     1      70.885  58.850  14.148  0.00  0.00    +0.000 OA
ATOM      3  H   UNL     1      71.121  58.644  13.241  0.00  0.00    +0.000 HD
ENDBRANCH   1   2
BRANCH   1   4
ATOM      4  C   UNL     1      70.673  58.062  16.375  0.00  0.00    +0.000 C 
BRANCH   4   6
ATOM      5  C   UNL     1      72.605  58.712  17.888  0.00  0.00    +0.000 C 
ATOM      6  N   UNL     1      71.633  59.024  16.870  0.00  0.00    +0.000 N 
ATOM      7  O   UNL     1      72.638  57.660  18.460  0.00  0.00    +0.000 OA
ATOM      8  H   UNL     1      71.622  59.967  16.481  0.00  0.00    +0.000 HD
BRANCH   5   9
ATOM      9  O   UNL     1      73.515  59.743  18.131  0.00  0.00    +0.000 OA
BRANCH   9  13
ATOM     10  C   UNL     1      75.572  60.008  18.891  0.00  0.00    +0.000 C 
ATOM     11  C   UNL     1      74.041  60.693  20.428  0.00  0.00    +0.000 C 
ATOM     12  C   UNL     1      72.466  60.848  20.466  0.00  0.00    +0.000 C 
ATOM     13  C   UNL     1      74.471  59.632  19.275  0.00  0.00    +0.000 C 
ATOM     14  C   UNL     1      74.500  61.803  20.076  0.00  0.00    +0.000 C 
ATOM     15  C   UNL     1      72.191  61.974  19.493  0.00  0.00    +0.000 C 
ATOM     16  O   UNL     1      75.486  61.533  18.967  0.00  0.00    +0.000 OA
ATOM     17  O   UNL     1      73.253  62.709  19.497  0.00  0.00    +0.000 OA
ENDBRANCH   9  13
ENDBRANCH   5   9
ENDBRANCH   4   6
BRANCH   4  18
ATOM     18  C   UNL     1      69.302  58.734  16.436  0.00  0.00    +0.000 C 
BRANCH  18  19
ATOM     19  C   UNL     1      69.050  59.142  17.883  0.00  0.00    +0.000 A 
ATOM     20  C   UNL     1      68.663  58.098  18.924  0.00  0.00    +0.000 A 
ATOM     21  C   UNL     1      68.435  58.530  20.367  0.00  0.00    +0.000 A 
ATOM     22  C   UNL     1      68.587  59.992  20.761  0.00  0.00    +0.000 A 
ATOM     23  C   UNL     1      68.979  61.027  19.722  0.00  0.00    +0.000 A 
ATOM     24  C   UNL     1      69.213  60.600  18.281  0.00  0.00    +0.000 A 
ENDBRANCH  18  19
ENDBRANCH   4  18
ENDBRANCH   1   4
BRANCH   1  25
ATOM     25  C   UNL     1      70.188  56.574  14.396  0.00  0.00    +0.000 C 
BRANCH  25  26
ATOM     26  N   UNL     1      70.528  55.330  15.072  0.00  0.00    +0.000 NA
BRANCH  26  29
ATOM     27  O   UNL     1      69.991  53.971  17.216  0.00  0.00    +0.000 OA
ATOM     28  O   UNL     1      68.451  55.669  16.659  0.00  0.00    +0.000 OA
ATOM     29  S   UNL     1      69.347  54.662  16.106  0.00  0.00    +0.000 S 
BRANCH  29  33
ATOM     30  C   UNL     1      67.137  51.441  13.380  0.00  0.00    +0.000 A 
ATOM     31  C   UNL     1      66.788  52.912  13.200  0.00  0.00    +0.000 A 
ATOM     32  C   UNL     1      67.469  53.952  14.063  0.00  0.00    +0.000 A 
ATOM     33  C   UNL     1      68.482  53.471  15.088  0.00  0.00    +0.000 A 
ATOM     34  C   UNL     1      68.843  52.011  15.258  0.00  0.00    +0.000 A 
ATOM     35  C   UNL     1      68.162  50.977  14.392  0.00  0.00    +0.000 A 
BRANCH  30  36
ATOM     36  C   UNL     1      66.467  50.410  12.494  0.00  0.00    +0.000 C 
BRANCH  36  37
ATOM     37  O   UNL     1      66.553  50.901  11.186  0.00  0.00    +0.000 OA
ATOM     38  H   UNL     1      66.139  50.278  10.584  0.00  0.00    +0.000 HD
ENDBRANCH  36  37
BRANCH  36  39
ATOM     39  C   UNL     1      65.012  50.229  12.870  0.00  0.00    +0.000 C 
BRANCH  39  40
ATOM     40  O   UNL     1      64.495  49.172  12.101  0.00  0.00    +0.000 OA
ATOM     41  H   UNL     1      63.571  49.038  12.323  0.00  0.00    +0.000 HD
ENDBRANCH  39  40
ENDBRANCH  36  39
ENDBRANCH  30  36
ENDBRANCH  29  33
ENDBRANCH  26  29
BRANCH  26  42
ATOM     42  C   UNL     1      71.356  54.354  14.374  0.00  0.00    +0.000 C 
BRANCH  42  44
ATOM     43  C   UNL     1      73.373  54.692  15.849  0.00  0.00    +0.000 C 
ATOM     44  C   UNL     1      72.834  54.732  14.419  0.00  0.00    +0.000 C 
ATOM     45  C   UNL     1      73.621  53.748  13.549  0.00  0.00    +0.000 C 
ENDBRANCH  42  44
ENDBRANCH  26  42
ENDBRANCH  25  26
ENDBRANCH   1  25
TORSDOF 17
