REMARK  Name = 6op0_ligand
REMARK  9 active torsions:
REMARK  status: ('A' for Active; 'I' for Inactive)
REMARK    1  A    between atoms: O_1  and  C_2
REMARK    2  A    between atoms: C_2  and  C_3
REMARK    3  A    between atoms: C_2  and  C_9
REMARK    4  A    between atoms: N_13  and  C_14
REMARK    5  A    between atoms: C_14  and  C_15
REMARK    6  A    between atoms: C_16  and  C_17
REMARK    7  A    between atoms: C_21  and  C_22
REMARK    8  A    between atoms: C_24  and  C_27
REMARK    9  A    between atoms: N_29  and  C_30
REMARK                            x       y       z     vdW  Elec       q    Type
REMARK                         _______ _______ _______ _____ _____    ______ ____
ROOT
ATOM      1  C   UNL     1     -12.120   0.482  17.572  0.00  0.00    +0.000 A 
ATOM      2  N   UNL     1     -13.208   0.423  16.799  0.00  0.00    +0.000 NA
ATOM      3  C   UNL     1     -14.194  -0.153  17.532  0.00  0.00    +0.000 A 
ATOM      4  C   UNL     1     -13.682  -0.477  18.793  0.00  0.00    +0.000 A 
ATOM      5  N   UNL     1     -12.405  -0.111  18.796  0.00  0.00    +0.000 N 
ATOM      6  C   UNL     1     -14.501  -1.075  19.755  0.00  0.00    +0.000 A 
ATOM      7  C   UNL     1     -15.845  -1.369  19.443  0.00  0.00    +0.000 A 
ATOM      8  C   UNL     1     -16.344  -1.034  18.195  0.00  0.00    +0.000 A 
ATOM      9  C   UNL     1     -15.523  -0.446  17.238  0.00  0.00    +0.000 A 
ENDROOT
BRANCH   7  10
ATOM     10  C   UNL     1     -16.676  -2.081  20.334  0.00  0.00    +0.000 A 
ATOM     11  C   UNL     1     -16.306  -3.127  21.183  0.00  0.00    +0.000 A 
ATOM     12  N   UNL     1     -17.401  -3.494  21.850  0.00  0.00    +0.000 N 
ATOM     13  C   UNL     1     -17.665  -4.528  22.879  0.00  0.00    +0.000 C 
ATOM     14  N   UNL     1     -18.506  -2.725  21.496  0.00  0.00    +0.000 NA
ATOM     15  C   UNL     1     -18.057  -1.852  20.541  0.00  0.00    +0.000 A 
ENDBRANCH   7  10
BRANCH   1  16
ATOM     16  C   UNL     1     -10.809   0.943  17.087  0.00  0.00    +0.000 C 
BRANCH  16  17
ATOM     17  C   UNL     1     -10.123  -0.286  16.569  0.00  0.00    +0.000 A 
ATOM     18  C   UNL     1      -8.951  -0.749  17.143  0.00  0.00    +0.000 A 
ATOM     19  C   UNL     1      -8.381  -1.946  16.698  0.00  0.00    +0.000 A 
ATOM     20  N   UNL     1      -8.976  -2.678  15.718  0.00  0.00    +0.000 NA
ATOM     21  C   UNL     1     -10.131  -2.270  15.162  0.00  0.00    +0.000 A 
ATOM     22  C   UNL     1     -10.726  -1.067  15.580  0.00  0.00    +0.000 A 
ENDBRANCH  16  17
BRANCH  16  23
ATOM     23  O   UNL     1     -10.999   1.815  16.015  0.00  0.00    +0.000 OA
ATOM     24  H   UNL     1     -10.146   2.118  15.695  0.00  0.00    +0.000 HD
ENDBRANCH  16  23
ENDBRANCH   1  16
BRANCH   5  25
ATOM     25  C   UNL     1     -11.494  -0.229  19.957  0.00  0.00    +0.000 C 
BRANCH  25  26
ATOM     26  C   UNL     1     -11.195  -1.672  20.347  0.00  0.00    +0.000 A 
ATOM     27  C   UNL     1     -11.102  -1.971  21.679  0.00  0.00    +0.000 A 
ATOM     28  C   UNL     1     -11.353  -0.904  22.715  0.00  0.00    +0.000 C 
ATOM     29  C   UNL     1     -10.834  -3.253  22.074  0.00  0.00    +0.000 A 
ATOM     30  C   UNL     1     -10.630  -4.250  21.139  0.00  0.00    +0.000 A 
ATOM     31  C   UNL     1     -10.949  -2.667  19.392  0.00  0.00    +0.000 A 
ATOM     32  C   UNL     1     -10.666  -3.958  19.804  0.00  0.00    +0.000 A 
ATOM     33  C   UNL     1     -10.395  -5.077  18.812  0.00  0.00    +0.000 C 
ENDBRANCH  25  26
ENDBRANCH   5  25
TORSDOF 6
