REMARK  Name = 6e3n_ligand
REMARK  5 active torsions:
REMARK  status: ('A' for Active; 'I' for Inactive)
REMARK    1  A    between atoms: C_2  and  OXT_3
REMARK    2  A    between atoms: C_2  and  CA_4
REMARK    3  A    between atoms: C_6  and  O_7
REMARK    4  A    between atoms: C_11  and  C_12
REMARK    5  A    between atoms: C_17  and  C_18
REMARK                            x       y       z     vdW  Elec       q    Type
REMARK                         _______ _______ _______ _____ _____    ______ ____
ROOT
ATOM      1  CA  UNL     1     -19.113  16.372 134.166  0.00  0.00    +0.000 C 
ATOM      2  N   UNL     1     -20.111  16.672 135.114  0.00  0.00    +0.000 NA
ATOM      3  C   UNL     1     -19.349  16.726 132.811  0.00  0.00    +0.000 C 
ATOM      4  C   UNL     1     -20.551  17.366 132.407  0.00  0.00    +0.000 C 
ATOM      5  O   UNL     1     -20.803  17.695 131.239  0.00  0.00    +0.000 OA
ATOM      6  C   UNL     1     -21.512  17.643 133.376  0.00  0.00    +0.000 C 
ATOM      7  C   UNL     1     -21.307  17.297 134.719  0.00  0.00    +0.000 C 
ENDROOT
BRANCH   7   8
ATOM      8  C   UNL     1     -22.296  17.580 135.663  0.00  0.00    +0.000 A 
ATOM      9  C   UNL     1     -22.057  18.543 136.648  0.00  0.00    +0.000 A 
ATOM     10  C   UNL     1     -23.032  18.866 137.601  0.00  0.00    +0.000 A 
ATOM     11  C   UNL     1     -24.253  18.204 137.577  0.00  0.00    +0.000 A 
ATOM     12  C   UNL     1     -24.480  17.238 136.598  0.00  0.00    +0.000 A 
ATOM     13  C   UNL     1     -23.524  16.922 135.637  0.00  0.00    +0.000 A 
ATOM     14  C   UNL     1     -23.854  15.948 134.692  0.00  0.00    +0.000 C 
ENDBRANCH   7   8
BRANCH   1  16
ATOM     15  O   UNL     1     -16.980  15.575 133.856  0.00  0.00    +0.000 OA
ATOM     16  C   UNL     1     -17.944  15.740 134.630  0.00  0.00    +0.000 C 
BRANCH  16  17
ATOM     17  OXT UNL     1     -17.836  15.326 135.820  0.00  0.00    +0.000 OA
ATOM     18  HXT UNL     1     -18.646  15.518 136.299  0.00  0.00    +0.000 HD
ENDBRANCH  16  17
ENDBRANCH   1  16
BRANCH   3  19
ATOM     19  O   UNL     1     -18.400  16.441 131.858  0.00  0.00    +0.000 OA
ATOM     20  H   UNL     1     -17.649  16.012 132.274  0.00  0.00    +0.000 HD
ENDBRANCH   3  19
TORSDOF 4
