REMARK  Name = 6qlp_ligand
REMARK  9 active torsions:
REMARK  status: ('A' for Active; 'I' for Inactive)
REMARK    1  A    between atoms: C_1  and  C_13
REMARK    2  A    between atoms: C_1  and  O_29
REMARK    3  A    between atoms: C_2  and  C_17
REMARK    4  A    between atoms: C_7  and  C_8
REMARK    5  A    between atoms: C_11  and  S_32
REMARK    6  A    between atoms: C_12  and  S_32
REMARK    7  A    between atoms: C_14  and  O_30
REMARK    8  A    between atoms: C_15  and  N_25
REMARK    9  A    between atoms: C_19  and  O_31
REMARK                            x       y       z     vdW  Elec       q    Type
REMARK                         _______ _______ _______ _____ _____    ______ ____
ROOT
ATOM      1  C   UNL     1     -19.574   8.859  -1.676  0.00  0.00    +0.000 C 
ATOM      2  C   UNL     1     -19.469   6.644  -0.884  0.00  0.00    +0.000 C 
ATOM      3  C   UNL     1     -17.966   6.795  -0.588  0.00  0.00    +0.000 C 
ATOM      4  C   UNL     1     -17.345   7.840  -1.549  0.00  0.00    +0.000 C 
ATOM      5  C   UNL     1     -18.106   9.167  -1.496  0.00  0.00    +0.000 C 
ATOM      6  O   UNL     1     -20.112   7.896  -0.811  0.00  0.00    +0.000 OA
ENDROOT
BRANCH   4   9
ATOM      7  C   UNL     1     -13.927   8.350  -0.531  0.00  0.00    +0.000 A 
ATOM      8  C   UNL     1     -15.260   8.405  -0.232  0.00  0.00    +0.000 A 
ATOM      9  N   UNL     1     -15.940   7.973  -1.332  0.00  0.00    +0.000 N 
ATOM     10  N   UNL     1     -13.825   7.883  -1.832  0.00  0.00    +0.000 NA
ATOM     11  N   UNL     1     -15.018   7.643  -2.305  0.00  0.00    +0.000 NA
BRANCH   7  16
ATOM     12  C   UNL     1     -10.415   9.062   0.443  0.00  0.00    +0.000 A 
ATOM     13  C   UNL     1     -10.510   9.098   1.811  0.00  0.00    +0.000 A 
ATOM     14  C   UNL     1     -11.753   8.917   2.384  0.00  0.00    +0.000 A 
ATOM     15  C   UNL     1     -12.857   8.664   1.641  0.00  0.00    +0.000 A 
ATOM     16  C   UNL     1     -12.779   8.631   0.258  0.00  0.00    +0.000 A 
ATOM     17  C   UNL     1     -11.533   8.793  -0.327  0.00  0.00    +0.000 A 
ATOM     18  F   UNL     1      -9.219   9.240  -0.111  0.00  0.00    +0.000 F 
ATOM     19  F   UNL     1      -9.438   9.334   2.564  0.00  0.00    +0.000 F 
ATOM     20  F   UNL     1     -11.799   8.916   3.710  0.00  0.00    +0.000 F 
ENDBRANCH   7  16
ENDBRANCH   4   9
BRANCH   3  21
ATOM     21  O   UNL     1     -17.781   7.161   0.723  0.00  0.00    +0.000 OA
ATOM     22  H   UNL     1     -16.842   7.253   0.899  0.00  0.00    +0.000 HD
ENDBRANCH   3  21
BRANCH   5  23
ATOM     23  O   UNL     1     -17.614  10.043  -2.460  0.00  0.00    +0.000 OA
ATOM     24  H   UNL     1     -16.681  10.203  -2.299  0.00  0.00    +0.000 HD
ENDBRANCH   5  23
BRANCH   2  25
ATOM     25  C   UNL     1     -20.173   5.670   0.045  0.00  0.00    +0.000 C 
BRANCH  25  26
ATOM     26  O   UNL     1     -21.507   5.438  -0.439  0.00  0.00    +0.000 OA
ATOM     27  H   UNL     1     -21.956   4.823   0.145  0.00  0.00    +0.000 HD
ENDBRANCH  25  26
ENDBRANCH   2  25
BRANCH   1  28
ATOM     28  S   UNL     1     -20.587  10.300  -1.759  0.00  0.00    +0.000 S 
BRANCH  28  33
ATOM     29  C   UNL     1     -24.557   9.130  -6.198  0.00  0.00    +0.000 C 
ATOM     30  C   UNL     1     -23.581   9.356  -5.109  0.00  0.00    +0.000 A 
ATOM     31  C   UNL     1     -23.125   8.312  -4.306  0.00  0.00    +0.000 A 
ATOM     32  C   UNL     1     -22.226   8.562  -3.290  0.00  0.00    +0.000 A 
ATOM     33  C   UNL     1     -21.749   9.867  -3.023  0.00  0.00    +0.000 A 
ATOM     34  C   UNL     1     -22.173  10.886  -3.831  0.00  0.00    +0.000 A 
ATOM     35  C   UNL     1     -23.094  10.663  -4.855  0.00  0.00    +0.000 A 
ENDBRANCH  28  33
ENDBRANCH   1  28
TORSDOF 8
