REMARK  Name = 6jsn_ligand
REMARK  6 active torsions:
REMARK  status: ('A' for Active; 'I' for Inactive)
REMARK    1  A    between atoms: C_1  and  C_2
REMARK    2  A    between atoms: C_2  and  C_15
REMARK    3  A    between atoms: N_13  and  C_17
REMARK    4  A    between atoms: C_18  and  C_19
REMARK    5  A    between atoms: C_30  and  O_32
REMARK    6  A    between atoms: O_32  and  C_33
REMARK                            x       y       z     vdW  Elec       q    Type
REMARK                         _______ _______ _______ _____ _____    ______ ____
ROOT
ATOM      1  C   UNL     1     -18.669 -38.647  -8.301  0.00  0.00    +0.000 A 
ATOM      2  C   UNL     1     -18.972 -39.439  -7.180  0.00  0.00    +0.000 A 
ATOM      3  C   UNL     1     -20.278 -39.678  -6.759  0.00  0.00    +0.000 A 
ATOM      4  F   UNL     1     -19.578 -37.290 -10.071  0.00  0.00    +0.000 F 
ATOM      5  C   UNL     1     -19.752 -38.068  -8.981  0.00  0.00    +0.000 A 
ATOM      6  C   UNL     1     -21.059 -38.293  -8.551  0.00  0.00    +0.000 A 
ATOM      7  C   UNL     1     -21.334 -39.090  -7.429  0.00  0.00    +0.000 A 
ENDROOT
BRANCH   1   9
ATOM      8  C   UNL     1     -16.908 -36.992  -9.187  0.00  0.00    +0.000 C 
ATOM      9  C   UNL     1     -17.189 -38.428  -8.722  0.00  0.00    +0.000 C 
ATOM     10  C   UNL     1     -15.702 -39.590  -7.167  0.00  0.00    +0.000 C 
ATOM     11  C   UNL     1     -16.793 -40.864  -9.464  0.00  0.00    +0.000 C 
ATOM     12  C   UNL     1     -16.697 -39.345  -9.878  0.00  0.00    +0.000 C 
ATOM     13  C   UNL     1     -15.172 -39.270 -10.336  0.00  0.00    +0.000 C 
ATOM     14  C   UNL     1     -14.580 -40.191 -11.413  0.00  0.00    +0.000 C 
ATOM     15  N   UNL     1     -16.289 -38.562  -7.564  0.00  0.00    +0.000 N 
ATOM     16  N   UNL     1     -14.829 -39.511  -6.025  0.00  0.00    +0.000 NA
ATOM     17  O   UNL     1     -15.602 -38.691 -13.298  0.00  0.00    +0.000 OA
ATOM     18  C   UNL     1     -17.386 -40.335 -12.318  0.00  0.00    +0.000 C 
ATOM     19  O   UNL     1     -15.243 -41.110 -13.712  0.00  0.00    +0.000 OA
ATOM     20  C   UNL     1     -17.709 -39.458 -11.100  0.00  0.00    +0.000 C 
ATOM     21  S   UNL     1     -15.691 -40.065 -12.784  0.00  0.00    +0.000 S 
ATOM     22  S   UNL     1     -15.864 -41.191  -7.953  0.00  0.00    +0.000 S 
ATOM     23  H   UNL     1     -16.126 -37.714  -7.022  0.00  0.00    +0.000 HD
ATOM     24  H   UNL     1     -14.338 -40.344  -5.700  0.00  0.00    +0.000 HD
ENDBRANCH   1   9
BRANCH   3  25
ATOM     25  N   UNL     1     -20.397 -40.495  -5.542  0.00  0.00    +0.000 N 
ATOM     26  C   UNL     1     -21.625 -40.952  -4.878  0.00  0.00    +0.000 C 
ATOM     27  O   UNL     1     -22.719 -40.733  -5.253  0.00  0.00    +0.000 OA
ATOM     28  H   UNL     1     -19.520 -40.779  -5.106  0.00  0.00    +0.000 HD
BRANCH  26  29
ATOM     29  C   UNL     1     -21.399 -41.746  -3.570  0.00  0.00    +0.000 A 
ATOM     30  C   UNL     1     -19.970 -42.266  -1.817  0.00  0.00    +0.000 A 
ATOM     31  C   UNL     1     -22.389 -42.555  -3.013  0.00  0.00    +0.000 A 
ATOM     32  N   UNL     1     -22.122 -43.190  -1.870  0.00  0.00    +0.000 NA
ATOM     33  C   UNL     1     -20.941 -43.069  -1.257  0.00  0.00    +0.000 A 
ATOM     34  N   UNL     1     -20.232 -41.605  -2.946  0.00  0.00    +0.000 NA
BRANCH  33  35
ATOM     35  O   UNL     1     -20.623 -43.729  -0.048  0.00  0.00    +0.000 OA
BRANCH  35  36
ATOM     36  C   UNL     1     -21.718 -44.363   0.595  0.00  0.00    +0.000 C 
ATOM     37  F   UNL     1     -22.639 -43.442   1.029  0.00  0.00    +0.000 F 
ENDBRANCH  35  36
ENDBRANCH  33  35
ENDBRANCH  26  29
ENDBRANCH   3  25
TORSDOF 5
