REMARK  Name = 6qmr_ligand
REMARK  11 active torsions:
REMARK  status: ('A' for Active; 'I' for Inactive)
REMARK    1  A    between atoms: C_2  and  C_21
REMARK    2  A    between atoms: C_8  and  C_9
REMARK    3  A    between atoms: C_9  and  C_10
REMARK    4  A    between atoms: C_10  and  O_25
REMARK    5  A    between atoms: C_12  and  CA_16
REMARK    6  A    between atoms: CA_16  and  C_17
REMARK    7  A    between atoms: CA_16  and  N_27
REMARK    8  A    between atoms: C_17  and  O_28
REMARK    9  A    between atoms: C_18  and  C_22
REMARK   10  A    between atoms: C_22  and  O_23
REMARK   11  A    between atoms: O_23  and  C_24
REMARK                            x       y       z     vdW  Elec       q    Type
REMARK                         _______ _______ _______ _____ _____    ______ ____
ROOT
ATOM      1  C   UNL     1       5.869   3.266   7.658  0.00  0.00    +0.000 A 
ATOM      2  C   UNL     1       4.875   4.271   7.737  0.00  0.00    +0.000 A 
ATOM      3  C   UNL     1       3.686   4.004   8.435  0.00  0.00    +0.000 A 
ATOM      4  C   UNL     1       3.488   2.761   9.071  0.00  0.00    +0.000 A 
ATOM      5  C   UNL     1       4.478   1.761   8.965  0.00  0.00    +0.000 A 
ATOM      6  C   UNL     1       5.677   2.005   8.262  0.00  0.00    +0.000 A 
ENDROOT
BRANCH   2  12
ATOM      7  C   UNL     1       5.699   5.694   5.854  0.00  0.00    +0.000 A 
ATOM      8  C   UNL     1       5.935   6.949   5.271  0.00  0.00    +0.000 A 
ATOM      9  C   UNL     1       5.584   8.123   5.969  0.00  0.00    +0.000 A 
ATOM     10  C   UNL     1       4.954   8.063   7.224  0.00  0.00    +0.000 A 
ATOM     11  C   UNL     1       4.710   6.792   7.768  0.00  0.00    +0.000 A 
ATOM     12  C   UNL     1       5.095   5.607   7.111  0.00  0.00    +0.000 A 
BRANCH   8  13
ATOM     13  CA  UNL     1       6.600   6.988   3.875  0.00  0.00    +0.000 C 
BRANCH  13  14
ATOM     14  N   UNL     1       7.640   8.053   3.711  0.00  0.00    +0.000 N 
ATOM     15  H1  UNL     1       8.025   8.008   2.768  0.00  0.00    +0.000 HD
ATOM     16  H2  UNL     1       7.215   8.968   3.863  0.00  0.00    +0.000 HD
ATOM     17  H3  UNL     1       8.386   7.906   4.391  0.00  0.00    +0.000 HD
ENDBRANCH  13  14
BRANCH  13  18
ATOM     18  C   UNL     1       5.471   7.105   2.800  0.00  0.00    +0.000 C 
BRANCH  18  19
ATOM     19  O   UNL     1       5.114   8.502   2.656  0.00  0.00    +0.000 OA
ATOM     20  H   UNL     1       4.420   8.588   1.998  0.00  0.00    +0.000 HD
ENDBRANCH  18  19
ENDBRANCH  13  18
ENDBRANCH   8  13
ENDBRANCH   2  12
BRANCH   4  21
ATOM     21  C   UNL     1       2.169   2.489   9.805  0.00  0.00    +0.000 C 
BRANCH  21  22
ATOM     22  O   UNL     1       2.035   3.541  10.783  0.00  0.00    +0.000 OA
BRANCH  22  28
ATOM     23  C   UNL     1      -0.213   2.892  11.553  0.00  0.00    +0.000 A 
ATOM     24  C   UNL     1      -1.394   3.194  12.270  0.00  0.00    +0.000 A 
ATOM     25  C   UNL     1      -1.502   4.408  12.963  0.00  0.00    +0.000 A 
ATOM     26  C   UNL     1      -0.447   5.344  12.924  0.00  0.00    +0.000 A 
ATOM     27  C   UNL     1       0.724   5.078  12.179  0.00  0.00    +0.000 A 
ATOM     28  C   UNL     1       0.851   3.820  11.499  0.00  0.00    +0.000 A 
BRANCH  27  29
ATOM     29  C   UNL     1       1.878   6.113  12.206  0.00  0.00    +0.000 C 
BRANCH  29  30
ATOM     30  C   UNL     1       2.272   6.688  10.849  0.00  0.00    +0.000 C 
ATOM     31  O   UNL     1       3.234   7.447  10.729  0.00  0.00    +0.000 OA
BRANCH  30  32
ATOM     32  O   UNL     1       1.518   6.363   9.782  0.00  0.00    +0.000 OA
ATOM     33  H   UNL     1       0.817   5.767  10.056  0.00  0.00    +0.000 HD
ENDBRANCH  30  32
ENDBRANCH  29  30
ENDBRANCH  27  29
ENDBRANCH  22  28
ENDBRANCH  21  22
ENDBRANCH   4  21
TORSDOF 11
