REMARK  Name = 6hhh_ligand
REMARK  8 active torsions:
REMARK  status: ('A' for Active; 'I' for Inactive)
REMARK    1  A    between atoms: C_6  and  C_7
REMARK    2  A    between atoms: C_17  and  C_18
REMARK    3  A    between atoms: C_23  and  C_24
REMARK    4  A    between atoms: C_24  and  N_25
REMARK    5  A    between atoms: N_30  and  C_31
REMARK    6  A    between atoms: C_36  and  N_37
REMARK    7  A    between atoms: C_38  and  C_40
REMARK    8  A    between atoms: C_40  and  C_41
REMARK                            x       y       z     vdW  Elec       q    Type
REMARK                         _______ _______ _______ _____ _____    ______ ____
ROOT
ATOM      1  C   UNL     1      -3.571   1.987 -13.123  0.00  0.00    +0.000 A 
ATOM      2  C   UNL     1      -3.251   1.626 -11.816  0.00  0.00    +0.000 A 
ATOM      3  C   UNL     1      -3.635   2.438 -10.747  0.00  0.00    +0.000 A 
ATOM      4  C   UNL     1      -4.264   3.180 -13.342  0.00  0.00    +0.000 A 
ATOM      5  C   UNL     1      -4.655   3.982 -12.283  0.00  0.00    +0.000 A 
ATOM      6  C   UNL     1      -4.330   3.621 -10.986  0.00  0.00    +0.000 A 
ENDROOT
BRANCH   1  17
ATOM      7  C   UNL     1      -4.138   0.720 -15.171  0.00  0.00    +0.000 A 
ATOM      8  C   UNL     1      -3.712  -0.119 -16.199  0.00  0.00    +0.000 A 
ATOM      9  C   UNL     1      -2.383  -0.522 -16.215  0.00  0.00    +0.000 A 
ATOM     10  C   UNL     1      -1.909  -1.357 -17.221  0.00  0.00    +0.000 C 
ATOM     11  O   UNL     1      -2.651  -1.763 -18.115  0.00  0.00    +0.000 OA
ATOM     12  N   UNL     1      -0.565  -1.745 -17.214  0.00  0.00    +0.000 NA
ATOM     13  C   UNL     1       0.257  -1.327 -16.266  0.00  0.00    +0.000 C 
ATOM     14  C   UNL     1      -0.184  -0.493 -15.250  0.00  0.00    +0.000 C 
ATOM     15  C   UNL     1      -1.514  -0.087 -15.219  0.00  0.00    +0.000 A 
ATOM     16  N   UNL     1      -1.941   0.726 -14.239  0.00  0.00    +0.000 NA
ATOM     17  C   UNL     1      -3.209   1.154 -14.189  0.00  0.00    +0.000 A 
BRANCH   7  23
ATOM     18  C   UNL     1      -6.270   0.841 -14.033  0.00  0.00    +0.000 A 
ATOM     19  C   UNL     1      -7.593   1.246 -14.000  0.00  0.00    +0.000 A 
ATOM     20  C   UNL     1      -8.145   1.921 -15.087  0.00  0.00    +0.000 A 
ATOM     21  C   UNL     1      -7.371   2.189 -16.205  0.00  0.00    +0.000 A 
ATOM     22  C   UNL     1      -6.040   1.776 -16.239  0.00  0.00    +0.000 A 
ATOM     23  C   UNL     1      -5.483   1.112 -15.152  0.00  0.00    +0.000 A 
ENDBRANCH   7  23
ENDBRANCH   1  17
BRANCH   6  24
ATOM     24  C   UNL     1      -4.744   4.448  -9.953  0.00  0.00    +0.000 C 
BRANCH  24  25
ATOM     25  N   UNL     1      -3.655   4.969  -9.139  0.00  0.00    +0.000 N 
ATOM     26  C   UNL     1      -4.309   5.702  -8.047  0.00  0.00    +0.000 C 
ATOM     27  C   UNL     1      -3.296   6.296  -7.098  0.00  0.00    +0.000 C 
ATOM     28  C   UNL     1      -2.917   5.935  -9.961  0.00  0.00    +0.000 C 
ATOM     29  C   UNL     1      -1.789   6.568  -9.165  0.00  0.00    +0.000 C 
ATOM     30  N   UNL     1      -2.251   7.044  -7.835  0.00  0.00    +0.000 N 
ATOM     31  H   UNL     1      -3.027   4.242  -8.797  0.00  0.00    +0.000 HD
BRANCH  30  32
ATOM     32  C   UNL     1      -1.713   8.146  -7.284  0.00  0.00    +0.000 A 
ATOM     33  C   UNL     1      -1.843   8.384  -5.920  0.00  0.00    +0.000 A 
ATOM     34  C   UNL     1      -1.284   9.530  -5.354  0.00  0.00    +0.000 A 
ATOM     35  C   UNL     1      -1.024   9.058  -8.070  0.00  0.00    +0.000 A 
ATOM     36  C   UNL     1      -0.468  10.200  -7.503  0.00  0.00    +0.000 A 
ATOM     37  C   UNL     1      -0.582  10.441  -6.136  0.00  0.00    +0.000 A 
BRANCH  37  38
ATOM     38  N   UNL     1      -0.050  11.556  -5.616  0.00  0.00    +0.000 N 
ATOM     39  C   UNL     1       1.283  11.644  -5.409  0.00  0.00    +0.000 C 
ATOM     40  O   UNL     1       2.094  10.743  -5.638  0.00  0.00    +0.000 OA
ATOM     41  H   UNL     1      -0.654  12.342  -5.375  0.00  0.00    +0.000 HD
BRANCH  39  42
ATOM     42  C   UNL     1       1.755  13.015  -4.880  0.00  0.00    +0.000 C 
ATOM     43  C   UNL     1       0.766  14.176  -5.091  0.00  0.00    +0.000 C 
ENDBRANCH  39  42
ENDBRANCH  37  38
ENDBRANCH  30  32
ENDBRANCH  24  25
ENDBRANCH   6  24
TORSDOF 7
