REMARK  Name = 6s9w_ligand
REMARK  8 active torsions:
REMARK  status: ('A' for Active; 'I' for Inactive)
REMARK    1  A    between atoms: C_3  and  C_5
REMARK    2  A    between atoms: C_4  and  C_6
REMARK    3  A    between atoms: C_14  and  C_17
REMARK    4  A    between atoms: C_17  and  N_36
REMARK    5  A    between atoms: C_20  and  N_37
REMARK    6  A    between atoms: C_28  and  N_39
REMARK    7  A    between atoms: C_30  and  C_31
REMARK    8  A    between atoms: C_31  and  C_32
REMARK                            x       y       z     vdW  Elec       q    Type
REMARK                         _______ _______ _______ _____ _____    ______ ____
ROOT
ATOM      1  C   UNL     1     -11.845 -15.619  13.586  0.00  0.00    +0.000 C 
ATOM      2  C   UNL     1     -11.664 -16.779  14.548  0.00  0.00    +0.000 C 
ATOM      3  C   UNL     1     -11.084 -16.259  15.857  0.00  0.00    +0.000 C 
ATOM      4  C   UNL     1     -11.983 -15.177  16.430  0.00  0.00    +0.000 C 
ATOM      5  C   UNL     1     -12.132 -14.070  15.407  0.00  0.00    +0.000 C 
ATOM      6  N   UNL     1     -12.729 -14.594  14.167  0.00  0.00    +0.000 N 
ATOM      7  H   UNL     1     -13.637 -15.012  14.369  0.00  0.00    +0.000 HD
ENDROOT
BRANCH   3  15
ATOM      8  C   UNL     1     -11.672 -18.318  17.275  0.00  0.00    +0.000 A 
ATOM      9  C   UNL     1      -9.790 -18.579  18.275  0.00  0.00    +0.000 A 
ATOM     10  C   UNL     1      -9.700 -17.522  17.463  0.00  0.00    +0.000 A 
ATOM     11  C   UNL     1      -8.741 -18.951  19.017  0.00  0.00    +0.000 A 
ATOM     12  C   UNL     1      -7.530 -18.258  18.960  0.00  0.00    +0.000 A 
ATOM     13  C   UNL     1      -7.445 -17.139  18.131  0.00  0.00    +0.000 A 
ATOM     14  C   UNL     1      -8.570 -16.826  17.377  0.00  0.00    +0.000 A 
ATOM     15  N   UNL     1     -10.863 -17.357  16.837  0.00  0.00    +0.000 N 
ATOM     16  N   UNL     1     -11.024 -19.077  18.159  0.00  0.00    +0.000 N 
ATOM     17  O   UNL     1     -12.841 -18.488  16.921  0.00  0.00    +0.000 OA
ATOM     18  H   UNL     1     -11.400 -19.886  18.654  0.00  0.00    +0.000 HD
BRANCH  13  20
ATOM     19  C   UNL     1      -5.542 -15.780  18.845  0.00  0.00    +0.000 C 
ATOM     20  N   UNL     1      -6.357 -16.366  17.921  0.00  0.00    +0.000 N 
ATOM     21  O   UNL     1      -4.604 -15.067  18.492  0.00  0.00    +0.000 OA
ATOM     22  H   UNL     1      -6.113 -16.199  16.945  0.00  0.00    +0.000 HD
BRANCH  19  23
ATOM     23  C   UNL     1      -5.750 -16.011  20.351  0.00  0.00    +0.000 C 
ATOM     24  C   UNL     1      -4.371 -16.190  21.001  0.00  0.00    +0.000 C 
ENDBRANCH  19  23
ENDBRANCH  13  20
ENDBRANCH   3  15
BRANCH   6  25
ATOM     25  C   UNL     1     -12.885 -13.486  13.216  0.00  0.00    +0.000 C 
BRANCH  25  29
ATOM     26  C   UNL     1     -15.527 -14.366  10.070  0.00  0.00    +0.000 A 
ATOM     27  C   UNL     1     -15.831 -14.775  11.367  0.00  0.00    +0.000 A 
ATOM     28  C   UNL     1     -14.962 -14.484  12.420  0.00  0.00    +0.000 A 
ATOM     29  C   UNL     1     -13.772 -13.797  12.183  0.00  0.00    +0.000 A 
ATOM     30  C   UNL     1     -13.463 -13.402  10.890  0.00  0.00    +0.000 A 
ATOM     31  C   UNL     1     -14.328 -13.695   9.844  0.00  0.00    +0.000 A 
BRANCH  26  35
ATOM     32  C   UNL     1     -17.734 -16.376   7.926  0.00  0.00    +0.000 C 
ATOM     33  C   UNL     1     -18.135 -15.426   6.997  0.00  0.00    +0.000 C 
ATOM     34  C   UNL     1     -16.847 -13.750   8.044  0.00  0.00    +0.000 C 
ATOM     35  C   UNL     1     -16.403 -14.671   9.019  0.00  0.00    +0.000 C 
ATOM     36  C   UNL     1     -19.005 -15.791   5.973  0.00  0.00    +0.000 C 
ATOM     37  N   UNL     1     -17.686 -14.165   7.080  0.00  0.00    +0.000 N 
ATOM     38  N   UNL     1     -16.862 -15.995   8.949  0.00  0.00    +0.000 N 
ATOM     39  O   UNL     1     -18.138 -17.536   7.858  0.00  0.00    +0.000 OA
ATOM     40  H   UNL     1     -17.995 -13.491   6.380  0.00  0.00    +0.000 HD
ATOM     41  H   UNL     1     -16.560 -16.678   9.644  0.00  0.00    +0.000 HD
BRANCH  34  42
ATOM     42  C   UNL     1     -16.485 -12.398   7.983  0.00  0.00    +0.000 A 
ATOM     43  C   UNL     1     -16.659 -11.540   9.066  0.00  0.00    +0.000 A 
ATOM     44  C   UNL     1     -16.293 -10.200   8.963  0.00  0.00    +0.000 A 
ATOM     45  C   UNL     1     -15.770  -9.701   7.772  0.00  0.00    +0.000 A 
ATOM     46  C   UNL     1     -15.611 -10.552   6.687  0.00  0.00    +0.000 A 
ATOM     47  C   UNL     1     -15.975 -11.889   6.793  0.00  0.00    +0.000 A 
ENDBRANCH  34  42
ENDBRANCH  26  35
ENDBRANCH  25  29
ENDBRANCH   6  25
TORSDOF 7
