REMARK  Name = 6n4b_ligand
REMARK  11 active torsions:
REMARK  status: ('A' for Active; 'I' for Inactive)
REMARK    1  A    between atoms: N_1  and  C_2
REMARK    2  A    between atoms: C_2  and  C_3
REMARK    3  A    between atoms: C_2  and  C_5
REMARK    4  A    between atoms: C_3  and  O_29
REMARK    5  A    between atoms: C_5  and  C_6
REMARK    6  A    between atoms: C_5  and  C_7
REMARK    7  A    between atoms: C_5  and  C_10
REMARK    8  A    between atoms: C_8  and  C_11
REMARK    9  A    between atoms: C_9  and  O_29
REMARK   10  A    between atoms: C_12  and  C_13
REMARK   11  A    between atoms: C_12  and  N_27
REMARK                            x       y       z     vdW  Elec       q    Type
REMARK                         _______ _______ _______ _____ _____    ______ ____
ROOT
ATOM      1  C   UNL     1      90.532 131.162 119.893  0.00  0.00    +0.000 A 
ATOM      2  C   UNL     1      91.971 130.859 118.333  0.00  0.00    +0.000 A 
ATOM      3  C   UNL     1      90.799 131.413 118.604  0.00  0.00    +0.000 A 
ATOM      4  C   UNL     1      90.154 132.057 117.638  0.00  0.00    +0.000 A 
ATOM      5  C   UNL     1      90.687 132.179 116.375  0.00  0.00    +0.000 A 
ATOM      6  C   UNL     1      91.924 131.618 116.121  0.00  0.00    +0.000 A 
ATOM      7  C   UNL     1      92.567 130.957 117.149  0.00  0.00    +0.000 A 
ATOM      8  N   UNL     1      91.533 130.465 120.418  0.00  0.00    +0.000 NA
ATOM      9  N   UNL     1      92.428 130.298 119.445  0.00  0.00    +0.000 N 
ENDROOT
BRANCH   1  11
ATOM     10  N   UNL     1      89.376 131.042 121.850  0.00  0.00    +0.000 N 
ATOM     11  C   UNL     1      89.418 131.480 120.588  0.00  0.00    +0.000 C 
ATOM     12  O   UNL     1      88.440 132.050 120.095  0.00  0.00    +0.000 OA
ATOM     13  H   UNL     1      90.144 130.492 122.236  0.00  0.00    +0.000 HD
BRANCH  10  14
ATOM     14  C   UNL     1      88.196 131.370 122.675  0.00  0.00    +0.000 C 
BRANCH  14  15
ATOM     15  C   UNL     1      88.165 130.418 123.895  0.00  0.00    +0.000 C 
ATOM     16  C   UNL     1      86.883 130.675 124.671  0.00  0.00    +0.000 C 
ATOM     17  C   UNL     1      88.133 129.001 123.332  0.00  0.00    +0.000 C 
ATOM     18  C   UNL     1      89.379 130.473 124.835  0.00  0.00    +0.000 C 
ENDBRANCH  14  15
BRANCH  14  19
ATOM     19  C   UNL     1      88.164 132.892 122.980  0.00  0.00    +0.000 C 
ATOM     20  O   UNL     1      87.319 133.561 122.384  0.00  0.00    +0.000 OA
BRANCH  19  22
ATOM     21  C   UNL     1      88.847 134.859 123.986  0.00  0.00    +0.000 C 
ATOM     22  O   UNL     1      89.075 133.446 123.826  0.00  0.00    +0.000 OA
ENDBRANCH  19  22
ENDBRANCH  14  19
ENDBRANCH  10  14
ENDBRANCH   1  11
BRANCH   9  23
ATOM     23  C   UNL     1      93.719 129.635 119.481  0.00  0.00    +0.000 C 
BRANCH  23  24
ATOM     24  C   UNL     1      94.686 130.566 119.862  0.00  0.00    +0.000 A 
ATOM     25  C   UNL     1      94.540 131.941 119.852  0.00  0.00    +0.000 A 
ATOM     26  C   UNL     1      95.552 132.786 120.241  0.00  0.00    +0.000 A 
ATOM     27  C   UNL     1      96.744 132.236 120.668  0.00  0.00    +0.000 A 
ATOM     28  C   UNL     1      96.937 130.879 120.705  0.00  0.00    +0.000 A 
ATOM     29  C   UNL     1      95.879 130.123 120.289  0.00  0.00    +0.000 A 
ATOM     30  F   UNL     1      97.563 132.898 120.989  0.00  0.00    +0.000 F 
ENDBRANCH  23  24
ENDBRANCH   9  23
TORSDOF 7
