REMARK  Name = 6n55_ligand
REMARK  5 active torsions:
REMARK  status: ('A' for Active; 'I' for Inactive)
REMARK    1  A    between atoms: N_1  and  C_9
REMARK    2  A    between atoms: C_10  and  N_12
REMARK    3  A    between atoms: C_11  and  O_13
REMARK    4  A    between atoms: C_14  and  C_17
REMARK    5  A    between atoms: C_17  and  O_19
REMARK                            x       y       z     vdW  Elec       q    Type
REMARK                         _______ _______ _______ _____ _____    ______ ____
ROOT
ATOM      1  C   UNL     1     107.751 -50.737  42.714  0.00  0.00    +0.000 C 
ATOM      2  C   UNL     1     108.746 -51.690  43.427  0.00  0.00    +0.000 C 
ATOM      3  C   UNL     1     110.158 -51.086  43.340  0.00  0.00    +0.000 C 
ATOM      4  C   UNL     1     109.798 -49.592  43.318  0.00  0.00    +0.000 C 
ATOM      5  O   UNL     1     108.454 -49.457  42.770  0.00  0.00    +0.000 OA
ENDROOT
BRANCH   1   6
ATOM      6  N   UNL     1     107.481 -51.086  41.301  0.00  0.00    +0.000 N 
ATOM      7  C   UNL     1     106.508 -51.968  41.013  0.00  0.00    +0.000 A 
ATOM      8  O   UNL     1     105.905 -52.454  41.947  0.00  0.00    +0.000 OA
ATOM      9  N   UNL     1     106.202 -52.311  39.736  0.00  0.00    +0.000 N 
ATOM     10  C   UNL     1     106.892 -51.757  38.706  0.00  0.00    +0.000 A 
ATOM     11  O   UNL     1     106.646 -52.051  37.544  0.00  0.00    +0.000 OA
ATOM     12  C   UNL     1     107.925 -50.818  38.974  0.00  0.00    +0.000 A 
ATOM     13  C   UNL     1     108.189 -50.503  40.270  0.00  0.00    +0.000 A 
ATOM     14  H   UNL     1     105.457 -52.982  39.551  0.00  0.00    +0.000 HD
ENDBRANCH   1   6
BRANCH   2  15
ATOM     15  N   UNL     1     108.441 -52.667  44.479  0.00  0.00    +0.000 NA
ATOM     16  N   UNL     1     107.417 -53.114  44.669  0.00  0.00    +0.000 NA
ATOM     17  N   UNL     1     106.412 -53.586  44.917  0.00  0.00    +0.000 NA
ENDBRANCH   2  15
BRANCH   3  18
ATOM     18  O   UNL     1     110.928 -51.383  44.510  0.00  0.00    +0.000 OA
ATOM     19  H   UNL     1     111.801 -50.993  44.425  0.00  0.00    +0.000 HD
ENDBRANCH   3  18
BRANCH   4  20
ATOM     20  C   UNL     1     110.870 -48.830  42.516  0.00  0.00    +0.000 C 
BRANCH  20  21
ATOM     21  O   UNL     1     111.096 -47.543  43.116  0.00  0.00    +0.000 OA
ATOM     22  H   UNL     1     111.764 -47.070  42.614  0.00  0.00    +0.000 HD
ENDBRANCH  20  21
ENDBRANCH   4  20
TORSDOF 5
