REMARK  Name = 6iql_ligand
REMARK  3 active torsions:
REMARK  status: ('A' for Active; 'I' for Inactive)
REMARK    1  A    between atoms: C_5  and  N_22
REMARK    2  A    between atoms: C_16  and  C_17
REMARK    3  A    between atoms: C_17  and  N_21
REMARK                            x       y       z     vdW  Elec       q    Type
REMARK                         _______ _______ _______ _____ _____    ______ ____
ROOT
ATOM      1  C   UNL     1      22.227  13.882  26.673  0.00  0.00    +0.000 C 
ATOM      2  C   UNL     1      23.530  13.804  24.672  0.00  0.00    +0.000 C 
ATOM      3  C   UNL     1      22.176  14.087  24.006  0.00  0.00    +0.000 C 
ATOM      4  C   UNL     1      21.673  15.153  26.024  0.00  0.00    +0.000 C 
ATOM      5  N   UNL     1      21.415  15.011  24.666  0.00  0.00    +0.000 N 
ATOM      6  N   UNL     1      23.456  13.380  26.077  0.00  0.00    +0.000 N 
ATOM      7  H   UNL     1      21.713  15.909  24.285  0.00  0.00    +0.000 HD
ENDROOT
BRANCH   6   8
ATOM      8  C   UNL     1      23.798  12.010  26.345  0.00  0.00    +0.000 A 
ATOM      9  C   UNL     1      24.424  11.646  27.530  0.00  0.00    +0.000 A 
ATOM     10  C   UNL     1      24.741  10.301  27.759  0.00  0.00    +0.000 A 
ATOM     11  C   UNL     1      24.428   9.332  26.797  0.00  0.00    +0.000 A 
ATOM     12  C   UNL     1      23.800   9.702  25.608  0.00  0.00    +0.000 A 
ATOM     13  C   UNL     1      23.484  11.040  25.381  0.00  0.00    +0.000 A 
ATOM     14 CL   UNL     1      24.828   7.620  27.078  0.00  0.00    +0.000 Cl
ENDBRANCH   6   8
BRANCH   5  15
ATOM     15  C   UNL     1      20.150  14.857  24.405  0.00  0.00    +0.000 C 
BRANCH  15  22
ATOM     16  C   UNL     1      16.117  16.100  22.104  0.00  0.00    +0.000 C 
ATOM     17  C   UNL     1      16.345  17.133  21.207  0.00  0.00    +0.000 C 
ATOM     18  C   UNL     1      17.166  15.575  22.889  0.00  0.00    +0.000 C 
ATOM     19  C   UNL     1      18.456  16.151  22.718  0.00  0.00    +0.000 C 
ATOM     20  C   UNL     1      18.637  17.161  21.830  0.00  0.00    +0.000 C 
ATOM     21  C   UNL     1      20.638  16.789  22.742  0.00  0.00    +0.000 C 
ATOM     22  C   UNL     1      19.768  15.910  23.316  0.00  0.00    +0.000 C 
ATOM     23  N   UNL     1      17.566  17.625  21.095  0.00  0.00    +0.000 NA
ATOM     24  N   UNL     1      19.950  17.534  21.861  0.00  0.00    +0.000 NA
ENDBRANCH  15  22
ENDBRANCH   5  15
TORSDOF 3
