REMARK  Name = 6h9v_ligand
REMARK  6 active torsions:
REMARK  status: ('A' for Active; 'I' for Inactive)
REMARK    1  A    between atoms: C_1  and  O_7
REMARK    2  A    between atoms: C_2  and  O_8
REMARK    3  A    between atoms: C_3  and  O_9
REMARK    4  A    between atoms: C_4  and  O_10
REMARK    5  A    between atoms: C_5  and  C_6
REMARK    6  A    between atoms: O_7  and  C_12
REMARK                            x       y       z     vdW  Elec       q    Type
REMARK                         _______ _______ _______ _____ _____    ______ ____
ROOT
ATOM      1  C   UNL     1       1.471  -5.365  32.937  0.00  0.00    +0.000 C 
ATOM      2  C   UNL     1       0.228  -5.125  33.779  0.00  0.00    +0.000 C 
ATOM      3  C   UNL     1      -1.014  -5.072  32.966  0.00  0.00    +0.000 C 
ATOM      4  C   UNL     1      -1.162  -6.303  32.115  0.00  0.00    +0.000 C 
ATOM      5  C   UNL     1       0.105  -6.559  31.317  0.00  0.00    +0.000 C 
ATOM      6  C   UNL     1      -0.056  -7.849  30.589  0.00  0.00    +0.000 C 
ATOM      7  O   UNL     1       1.303  -6.618  32.177  0.00  0.00    +0.000 OA
ENDROOT
BRANCH   1   8
ATOM      8  O   UNL     1       1.656  -4.354  32.038  0.00  0.00    +0.000 OA
ATOM      9  C   UNL     1       2.652  -4.617  31.073  0.00  0.00    +0.000 C 
ENDBRANCH   1   8
BRANCH   2  10
ATOM     10  O   UNL     1       0.396  -3.882  34.482  0.00  0.00    +0.000 OA
ATOM     11  H   UNL     1       1.199  -3.918  35.007  0.00  0.00    +0.000 HD
ENDBRANCH   2  10
BRANCH   3  12
ATOM     12  O   UNL     1      -2.182  -4.937  33.832  0.00  0.00    +0.000 OA
ATOM     13  H   UNL     1      -2.087  -4.151  34.375  0.00  0.00    +0.000 HD
ENDBRANCH   3  12
BRANCH   4  14
ATOM     14  O   UNL     1      -1.443  -7.454  32.922  0.00  0.00    +0.000 OA
ATOM     15  H   UNL     1      -2.243  -7.300  33.430  0.00  0.00    +0.000 HD
ENDBRANCH   4  14
TORSDOF 4
