REMARK  Name = 6oxs_ligand
REMARK  18 active torsions:
REMARK  status: ('A' for Active; 'I' for Inactive)
REMARK    1  A    between atoms: C_1  and  C_14
REMARK    2  A    between atoms: C_2  and  C_16
REMARK    3  A    between atoms: C_2  and  N_30
REMARK    4  A    between atoms: C_3  and  O_36
REMARK    5  A    between atoms: C_7  and  C_29
REMARK    6  A    between atoms: C_10  and  S_40
REMARK    7  A    between atoms: C_13  and  C_14
REMARK    8  A    between atoms: C_13  and  N_30
REMARK    9  A    between atoms: C_14  and  C_15
REMARK   10  A    between atoms: C_16  and  C_17
REMARK   11  A    between atoms: C_16  and  O_34
REMARK   12  A    between atoms: C_17  and  C_21
REMARK   13  A    between atoms: C_17  and  N_31
REMARK   14  A    between atoms: C_18  and  O_36
REMARK   15  A    between atoms: C_21  and  C_22
REMARK   16  A    between atoms: C_28  and  C_29
REMARK   17  A    between atoms: C_29  and  O_39
REMARK   18  A    between atoms: N_30  and  S_40
REMARK                            x       y       z     vdW  Elec       q    Type
REMARK                         _______ _______ _______ _____ _____    ______ ____
ROOT
ATOM      1  C   UNL     1      71.161  58.321  14.612  0.00  0.00    +0.000 C 
ENDROOT
BRANCH   1   2
ATOM      2  O   UNL     1      71.061  59.481  13.866  0.00  0.00    +0.000 OA
ATOM      3  H   UNL     1      71.314  59.299  12.958  0.00  0.00    +0.000 HD
ENDBRANCH   1   2
BRANCH   1   4
ATOM      4  C   UNL     1      70.274  57.224  14.007  0.00  0.00    +0.000 C 
BRANCH   4   5
ATOM      5  N   UNL     1      70.638  55.913  14.635  0.00  0.00    +0.000 NA
BRANCH   5   8
ATOM      6  O   UNL     1      68.680  56.288  16.366  0.00  0.00    +0.000 OA
ATOM      7  O   UNL     1      70.060  54.454  16.770  0.00  0.00    +0.000 OA
ATOM      8  S   UNL     1      69.451  55.242  15.702  0.00  0.00    +0.000 S 
BRANCH   8  12
ATOM      9  C   UNL     1      66.630  52.341  12.989  0.00  0.00    +0.000 A 
ATOM     10  C   UNL     1      66.454  53.876  12.875  0.00  0.00    +0.000 A 
ATOM     11  C   UNL     1      67.331  54.797  13.722  0.00  0.00    +0.000 A 
ATOM     12  C   UNL     1      68.360  54.163  14.666  0.00  0.00    +0.000 A 
ATOM     13  C   UNL     1      68.544  52.641  14.772  0.00  0.00    +0.000 A 
ATOM     14  C   UNL     1      67.667  51.723  13.922  0.00  0.00    +0.000 A 
BRANCH   9  16
ATOM     15  C   UNL     1      64.271  51.738  12.393  0.00  0.00    +0.000 C 
ATOM     16  C   UNL     1      65.740  51.411  12.115  0.00  0.00    +0.000 C 
BRANCH  16  17
ATOM     17  O   UNL     1      66.072  51.673  10.796  0.00  0.00    +0.000 OA
ATOM     18  H   UNL     1      65.544  51.118  10.218  0.00  0.00    +0.000 HD
ENDBRANCH  16  17
ENDBRANCH   9  16
ENDBRANCH   8  12
ENDBRANCH   5   8
BRANCH   5  19
ATOM     19  C   UNL     1      71.399  54.936  13.805  0.00  0.00    +0.000 C 
BRANCH  19  21
ATOM     20  C   UNL     1      73.462  55.183  15.277  0.00  0.00    +0.000 C 
ATOM     21  C   UNL     1      72.907  55.259  13.824  0.00  0.00    +0.000 C 
ATOM     22  C   UNL     1      73.635  54.234  12.948  0.00  0.00    +0.000 C 
ENDBRANCH  19  21
ENDBRANCH   5  19
ENDBRANCH   4   5
ENDBRANCH   1   4
BRANCH   1  23
ATOM     23  C   UNL     1      70.762  58.585  16.070  0.00  0.00    +0.000 C 
BRANCH  23  25
ATOM     24  C   UNL     1      72.719  59.189  17.619  0.00  0.00    +0.000 C 
ATOM     25  N   UNL     1      71.694  59.552  16.614  0.00  0.00    +0.000 N 
ATOM     26  O   UNL     1      72.775  58.113  18.113  0.00  0.00    +0.000 OA
ATOM     27  H   UNL     1      71.642  60.519  16.293  0.00  0.00    +0.000 HD
BRANCH  24  28
ATOM     28  O   UNL     1      73.625  60.239  17.954  0.00  0.00    +0.000 OA
BRANCH  28  32
ATOM     29  C   UNL     1      75.873  60.783  18.819  0.00  0.00    +0.000 C 
ATOM     30  C   UNL     1      73.914  60.903  20.132  0.00  0.00    +0.000 C 
ATOM     31  C   UNL     1      72.424  61.125  20.105  0.00  0.00    +0.000 C 
ATOM     32  C   UNL     1      74.390  60.134  19.158  0.00  0.00    +0.000 C 
ATOM     33  C   UNL     1      74.536  62.342  19.857  0.00  0.00    +0.000 C 
ATOM     34  C   UNL     1      72.226  62.207  19.374  0.00  0.00    +0.000 C 
ATOM     35  O   UNL     1      75.644  62.104  18.779  0.00  0.00    +0.000 OA
ATOM     36  O   UNL     1      73.615  63.072  19.408  0.00  0.00    +0.000 OA
ENDBRANCH  28  32
ENDBRANCH  24  28
ENDBRANCH  23  25
BRANCH  23  37
ATOM     37  C   UNL     1      69.380  59.216  16.181  0.00  0.00    +0.000 C 
BRANCH  37  38
ATOM     38  C   UNL     1      69.139  59.625  17.658  0.00  0.00    +0.000 C 
ATOM     39  C   UNL     1      69.156  61.131  18.041  0.00  0.00    +0.000 C 
ATOM     40  C   UNL     1      68.919  61.552  19.499  0.00  0.00    +0.000 C 
ATOM     41  C   UNL     1      68.664  60.475  20.578  0.00  0.00    +0.000 C 
ATOM     42  C   UNL     1      68.647  58.971  20.191  0.00  0.00    +0.000 C 
ATOM     43  C   UNL     1      68.884  58.549  18.729  0.00  0.00    +0.000 C 
ENDBRANCH  37  38
ENDBRANCH  23  37
ENDBRANCH   1  23
TORSDOF 15
