REMARK  Name = 6quw_ligand
REMARK  4 active torsions:
REMARK  status: ('A' for Active; 'I' for Inactive)
REMARK    1  A    between atoms: C_2  and  C_8
REMARK    2  A    between atoms: C_5  and  C_14
REMARK    3  A    between atoms: C_7  and  C_9
REMARK    4  A    between atoms: C_9  and  C_11
REMARK                            x       y       z     vdW  Elec       q    Type
REMARK                         _______ _______ _______ _____ _____    ______ ____
ROOT
ATOM      1  C   UNL     1      -6.530 -17.056  28.183  0.00  0.00    +0.000 C 
ATOM      2  C   UNL     1      -5.145 -19.109  27.633  0.00  0.00    +0.000 C 
ATOM      3  C   UNL     1      -4.967 -16.868  25.035  0.00  0.00    +0.000 A 
ATOM      4  C   UNL     1      -7.048 -18.065  25.153  0.00  0.00    +0.000 A 
ATOM      5  C   UNL     1      -3.089 -16.895  28.115  0.00  0.00    +0.000 C 
ATOM      6  C   UNL     1      -7.242 -17.819  23.800  0.00  0.00    +0.000 A 
ATOM      7  C   UNL     1      -7.370 -14.906  27.103  0.00  0.00    +0.000 C 
ATOM      8  C   UNL     1      -5.466 -17.665  27.221  0.00  0.00    +0.000 C 
ATOM      9  C   UNL     1      -6.395 -15.525  28.104  0.00  0.00    +0.000 C 
ATOM     10  C   UNL     1      -5.149 -16.623  23.673  0.00  0.00    +0.000 A 
ATOM     11  C   UNL     1      -6.650 -14.873  29.461  0.00  0.00    +0.000 C 
ATOM     12  C   UNL     1      -6.297 -17.115  23.065  0.00  0.00    +0.000 A 
ATOM     13  C   UNL     1      -5.892 -17.605  25.773  0.00  0.00    +0.000 A 
ATOM     14  C   UNL     1      -4.297 -16.616  27.238  0.00  0.00    +0.000 C 
ATOM     15  N   UNL     1      -3.906 -16.461  25.841  0.00  0.00    +0.000 N 
ATOM     16  N   UNL     1      -4.946 -15.309  27.659  0.00  0.00    +0.000 N 
ATOM     17  H   UNL     1      -3.006 -16.113  25.510  0.00  0.00    +0.000 HD
ATOM     18  H   UNL     1      -4.420 -14.923  28.443  0.00  0.00    +0.000 HD
ATOM     19  H   UNL     1      -4.943 -14.673  26.861  0.00  0.00    +0.000 HD
ENDROOT
TORSDOF 0
