REMARK  Name = 6qr9_ligand
REMARK  6 active torsions:
REMARK  status: ('A' for Active; 'I' for Inactive)
REMARK    1  A    between atoms: C_3  and  N_20
REMARK    2  A    between atoms: C_3  and  C_21
REMARK    3  A    between atoms: C_5  and  C_23
REMARK    4  A    between atoms: C_5  and  N_24
REMARK    5  A    between atoms: C_13  and  C_14
REMARK    6  A    between atoms: C_29  and  C_30
REMARK                            x       y       z     vdW  Elec       q    Type
REMARK                         _______ _______ _______ _____ _____    ______ ____
ROOT
ATOM      1  C   UNL     1     -24.636 -18.637  11.356  0.00  0.00    +0.000 A 
ATOM      2  C   UNL     1     -25.700 -22.097  10.528  0.00  0.00    +0.000 A 
ATOM      3  C   UNL     1     -22.338 -19.192  11.904  0.00  0.00    +0.000 A 
ATOM      4  C   UNL     1     -22.593 -20.540  11.585  0.00  0.00    +0.000 A 
ATOM      5  C   UNL     1     -23.902 -20.947  11.191  0.00  0.00    +0.000 A 
ATOM      6  C   UNL     1     -24.908 -20.013  11.077  0.00  0.00    +0.000 A 
ATOM      7  C   UNL     1     -23.348 -18.232  11.760  0.00  0.00    +0.000 A 
ATOM      8  C   UNL     1     -26.072 -20.760  10.653  0.00  0.00    +0.000 A 
ATOM      9  N   UNL     1     -24.406 -22.179  10.841  0.00  0.00    +0.000 N 
ENDROOT
BRANCH   3  14
ATOM     10  N   UNL     1     -18.052 -16.683  12.963  0.00  0.00    +0.000 N 
ATOM     11  C   UNL     1     -19.006 -17.704  12.702  0.00  0.00    +0.000 C 
ATOM     12  N   UNL     1     -18.756 -19.031  12.660  0.00  0.00    +0.000 NA
ATOM     13  N   UNL     1     -19.913 -19.670  12.385  0.00  0.00    +0.000 NA
ATOM     14  C   UNL     1     -20.910 -18.797  12.278  0.00  0.00    +0.000 C 
ATOM     15  C   UNL     1     -20.373 -17.537  12.450  0.00  0.00    +0.000 C 
ATOM     16  H   UNL     1     -17.078 -16.928  13.140  0.00  0.00    +0.000 HD
ATOM     17  H   UNL     1     -18.341 -15.705  12.973  0.00  0.00    +0.000 HD
BRANCH  15  18
ATOM     18  C   UNL     1     -21.090 -16.193  12.412  0.00  0.00    +0.000 C 
ATOM     19  N   UNL     1     -21.612 -15.178  12.386  0.00  0.00    +0.000 NA
ENDBRANCH  15  18
ENDBRANCH   3  14
BRANCH   9  20
ATOM     20  C   UNL     1     -23.641 -23.404  10.872  0.00  0.00    +0.000 C 
BRANCH  20  23
ATOM     21  C   UNL     1     -23.313 -23.510   8.338  0.00  0.00    +0.000 A 
ATOM     22  C   UNL     1     -21.484 -24.096   9.812  0.00  0.00    +0.000 A 
ATOM     23  C   UNL     1     -22.793 -23.654   9.630  0.00  0.00    +0.000 A 
ATOM     24  C   UNL     1     -22.499 -23.781   7.221  0.00  0.00    +0.000 A 
ATOM     25  C   UNL     1     -21.183 -24.217   7.391  0.00  0.00    +0.000 A 
ATOM     26  C   UNL     1     -20.677 -24.365   8.702  0.00  0.00    +0.000 A 
BRANCH  25  27
ATOM     27  C   UNL     1     -20.304 -24.513   6.145  0.00  0.00    +0.000 C 
BRANCH  27  30
ATOM     28  C   UNL     1     -20.553 -26.733   6.545  0.00  0.00    +0.000 C 
ATOM     29  C   UNL     1     -18.982 -25.909   5.028  0.00  0.00    +0.000 C 
ATOM     30  N   UNL     1     -19.747 -25.672   6.153  0.00  0.00    +0.000 N 
ATOM     31  C   UNL     1     -20.369 -28.036   5.791  0.00  0.00    +0.000 C 
ATOM     32  O   UNL     1     -20.296 -27.894   4.424  0.00  0.00    +0.000 OA
ATOM     33  C   UNL     1     -19.718 -26.725   3.981  0.00  0.00    +0.000 C 
ATOM     34  H   UNL     1     -19.086 -25.623   6.928  0.00  0.00    +0.000 HD
ENDBRANCH  27  30
ENDBRANCH  25  27
ENDBRANCH  20  23
ENDBRANCH   9  20
TORSDOF 6
