REMARK  Name = 6np2_ligand
REMARK  15 active torsions:
REMARK  status: ('A' for Active; 'I' for Inactive)
REMARK    1  A    between atoms: C_1  and  O_25
REMARK    2  A    between atoms: C_2  and  N_20
REMARK    3  A    between atoms: C_3  and  O_31
REMARK    4  A    between atoms: C_4  and  N_21
REMARK    5  A    between atoms: C_6  and  O_26
REMARK    6  A    between atoms: C_8  and  N_22
REMARK    7  A    between atoms: C_9  and  N_23
REMARK    8  A    between atoms: C_11  and  O_25
REMARK    9  A    between atoms: C_12  and  C_18
REMARK   10  A    between atoms: C_12  and  O_27
REMARK   11  A    between atoms: C_13  and  C_16
REMARK   12  A    between atoms: C_14  and  O_29
REMARK   13  A    between atoms: C_16  and  N_24
REMARK   14  A    between atoms: C_17  and  O_31
REMARK   15  A    between atoms: C_19  and  N_23
REMARK                            x       y       z     vdW  Elec       q    Type
REMARK                         _______ _______ _______ _____ _____    ______ ____
ROOT
ATOM      1  C   UNL     1     112.685 -14.811  -5.621  0.00  0.00    +0.000 C 
ATOM      2  C   UNL     1     112.931 -16.276  -5.285  0.00  0.00    +0.000 C 
ATOM      3  C   UNL     1     111.587 -16.995  -5.296  0.00  0.00    +0.000 C 
ATOM      4  C   UNL     1     110.898 -16.863  -6.650  0.00  0.00    +0.000 C 
ATOM      5  C   UNL     1     110.737 -15.408  -7.062  0.00  0.00    +0.000 C 
ATOM      6  C   UNL     1     112.076 -14.698  -7.012  0.00  0.00    +0.000 C 
ENDROOT
BRANCH   1   7
ATOM      7  N   UNL     1     113.942 -14.065  -5.553  0.00  0.00    +0.000 N 
ATOM      8  H   UNL     1     114.337 -14.151  -4.616  0.00  0.00    +0.000 HD
ATOM      9  H   UNL     1     114.598 -14.444  -6.236  0.00  0.00    +0.000 HD
ATOM     10  H   UNL     1     113.764 -13.082  -5.760  0.00  0.00    +0.000 HD
ENDBRANCH   1   7
BRANCH   3  11
ATOM     11  N   UNL     1     111.749 -18.432  -5.017  0.00  0.00    +0.000 N 
ATOM     12  H   UNL     1     112.209 -18.552  -4.114  0.00  0.00    +0.000 HD
ATOM     13  H   UNL     1     110.832 -18.878  -4.995  0.00  0.00    +0.000 HD
ATOM     14  H   UNL     1     112.318 -18.857  -5.749  0.00  0.00    +0.000 HD
ENDBRANCH   3  11
BRANCH   5  15
ATOM     15  O   UNL     1     110.252 -15.346  -8.398  0.00  0.00    +0.000 OA
ATOM     16  H   UNL     1     110.150 -14.428  -8.658  0.00  0.00    +0.000 HD
ENDBRANCH   5  15
BRANCH   4  17
ATOM     17  O   UNL     1     109.614 -17.470  -6.498  0.00  0.00    +0.000 OA
BRANCH  17  18
ATOM     18  C   UNL     1     108.910 -17.828  -7.689  0.00  0.00    +0.000 C 
ATOM     19  C   UNL     1     107.467 -18.161  -7.310  0.00  0.00    +0.000 C 
ATOM     20  C   UNL     1     106.716 -18.536  -8.597  0.00  0.00    +0.000 C 
ATOM     21  C   UNL     1     107.560 -19.447  -9.454  0.00  0.00    +0.000 C 
ATOM     22  C   UNL     1     108.839 -19.630  -9.243  0.00  0.00    +0.000 C 
ATOM     23  O   UNL     1     109.509 -18.994  -8.261  0.00  0.00    +0.000 OA
BRANCH  19  24
ATOM     24  N   UNL     1     107.465 -19.262  -6.339  0.00  0.00    +0.000 N 
ATOM     25  H   UNL     1     107.971 -18.976  -5.501  0.00  0.00    +0.000 HD
ATOM     26  H   UNL     1     106.503 -19.495  -6.093  0.00  0.00    +0.000 HD
ATOM     27  H   UNL     1     107.919 -20.077  -6.750  0.00  0.00    +0.000 HD
ENDBRANCH  19  24
BRANCH  22  28
ATOM     28  C   UNL     1     109.611 -20.542 -10.168  0.00  0.00    +0.000 C 
BRANCH  28  29
ATOM     29  N   UNL     1     110.953 -19.986 -10.397  0.00  0.00    +0.000 N 
ATOM     30  H   UNL     1     111.473 -20.602 -11.021  0.00  0.00    +0.000 HD
ATOM     31  H   UNL     1     110.869 -19.062 -10.821  0.00  0.00    +0.000 HD
ATOM     32  H   UNL     1     111.444 -19.909  -9.507  0.00  0.00    +0.000 HD
ENDBRANCH  28  29
ENDBRANCH  22  28
ENDBRANCH  17  18
ENDBRANCH   4  17
BRANCH   6  33
ATOM     33  O   UNL     1     111.817 -13.327  -7.312  0.00  0.00    +0.000 OA
BRANCH  33  34
ATOM     34  C   UNL     1     112.629 -12.699  -8.291  0.00  0.00    +0.000 C 
ATOM     35  C   UNL     1     112.756 -11.241  -7.882  0.00  0.00    +0.000 C 
ATOM     36  C   UNL     1     111.376 -10.575  -7.871  0.00  0.00    +0.000 C 
ATOM     37  C   UNL     1     110.698 -10.765  -9.227  0.00  0.00    +0.000 C 
ATOM     38  C   UNL     1     110.701 -12.236  -9.643  0.00  0.00    +0.000 C 
ATOM     39  C   UNL     1     109.234 -10.316  -9.162  0.00  0.00    +0.000 C 
ATOM     40  O   UNL     1     112.007 -12.807  -9.557  0.00  0.00    +0.000 OA
BRANCH  36  42
ATOM     41  C   UNL     1     110.684  -8.704  -6.419  0.00  0.00    +0.000 C 
ATOM     42  N   UNL     1     111.533  -9.133  -7.555  0.00  0.00    +0.000 N 
ATOM     43  H   UNL     1     111.251  -8.599  -8.377  0.00  0.00    +0.000 HD
ATOM     44  H   UNL     1     112.507  -8.972  -7.298  0.00  0.00    +0.000 HD
ENDBRANCH  36  42
BRANCH  35  45
ATOM     45  O   UNL     1     113.261 -11.189  -6.557  0.00  0.00    +0.000 OA
ATOM     46  H   UNL     1     114.128 -11.600  -6.530  0.00  0.00    +0.000 HD
ENDBRANCH  35  45
BRANCH  37  47
ATOM     47  O   UNL     1     111.428  -9.982 -10.167  0.00  0.00    +0.000 OA
ATOM     48  H   UNL     1     111.031 -10.075 -11.036  0.00  0.00    +0.000 HD
ENDBRANCH  37  47
ENDBRANCH  33  34
ENDBRANCH   6  33
TORSDOF 13
