REMARK  Name = 6i7a_ligand
REMARK  28 active torsions:
REMARK  status: ('A' for Active; 'I' for Inactive)
REMARK    1  A    between atoms: N_1  and  CA_2
REMARK    2  A    between atoms: CA_2  and  C_3
REMARK    3  A    between atoms: CA_2  and  CB_5
REMARK    4  A    between atoms: N_6  and  CA_7
REMARK    5  A    between atoms: CA_7  and  C_8
REMARK    6  A    between atoms: CA_7  and  CB_10
REMARK    7  A    between atoms: N_11  and  CA_12
REMARK    8  A    between atoms: CA_12  and  C_13
REMARK    9  A    between atoms: CA_12  and  CB_15
REMARK   10  A    between atoms: CB_15  and  CG_16
REMARK   11  A    between atoms: CG_16  and  OD2_18
REMARK   12  A    between atoms: N_19  and  CA_20
REMARK   13  A    between atoms: CA_20  and  C_21
REMARK   14  A    between atoms: CA_20  and  CB_23
REMARK   15  A    between atoms: CB_23  and  OG1_24
REMARK   16  A    between atoms: CB_23  and  CG2_25
REMARK   17  A    between atoms: N_26  and  CA_27
REMARK   18  A    between atoms: CA_27  and  C_28
REMARK   19  A    between atoms: CA_27  and  CB_30
REMARK   20  A    between atoms: CB_30  and  OG1_31
REMARK   21  A    between atoms: CB_30  and  CG2_32
REMARK   22  A    between atoms: N_33  and  CA_34
REMARK   23  A    between atoms: CA_34  and  C_35
REMARK   24  A    between atoms: CA_34  and  CB_37
REMARK   25  A    between atoms: CB_37  and  OG1_38
REMARK   26  A    between atoms: CB_37  and  CG2_39
REMARK   27  A    between atoms: CA_41  and  C_42
REMARK   28  A    between atoms: C_42  and  O_43
REMARK                            x       y       z     vdW  Elec       q    Type
REMARK                         _______ _______ _______ _____ _____    ______ ____
ROOT
ATOM      1  CA  THR A   4      -8.061  -2.553   8.293  0.00  0.00    +0.000 C 
ENDROOT
BRANCH   1   4
ATOM      2  C   ASP A   3     -10.049  -3.506   7.223  0.00  0.00    +0.000 C 
ATOM      3  O   ASP A   3     -10.797  -3.154   8.139  0.00  0.00    +0.000 OA
ATOM      4  N   THR A   4      -8.736  -3.278   7.228  0.00  0.00    +0.000 N 
ATOM      5  H   THR A   4      -8.179  -3.628   6.449  0.00  0.00    +0.000 HD
BRANCH   2   6
ATOM      6  CA  ASP A   3     -10.576  -4.237   5.996  0.00  0.00    +0.000 C 
BRANCH   6   9
ATOM      7  C   ALA A   2     -12.274  -5.988   6.080  0.00  0.00    +0.000 C 
ATOM      8  O   ALA A   2     -11.479  -6.857   5.709  0.00  0.00    +0.000 OA
ATOM      9  N   ASP A   3     -11.925  -4.715   6.251  0.00  0.00    +0.000 N 
ATOM     10  H   ASP A   3     -12.629  -4.051   6.572  0.00  0.00    +0.000 HD
BRANCH   7  11
ATOM     11  CA  ALA A   2     -13.733  -6.316   6.371  0.00  0.00    +0.000 C 
ATOM     12  CB  ALA A   2     -13.923  -6.579   7.865  0.00  0.00    +0.000 C 
BRANCH  11  15
ATOM     13  C   ALA A   1     -14.517  -7.338   4.317  0.00  0.00    +0.000 C 
ATOM     14  O   ALA A   1     -14.546  -6.253   3.734  0.00  0.00    +0.000 OA
ATOM     15  N   ALA A   2     -14.162  -7.465   5.591  0.00  0.00    +0.000 N 
ATOM     16  H   ALA A   2     -14.191  -8.385   6.030  0.00  0.00    +0.000 HD
BRANCH  13  17
ATOM     17  CA  ALA A   1     -14.901  -8.625   3.595  0.00  0.00    +0.000 C 
ATOM     18  CB  ALA A   1     -13.675  -9.528   3.437  0.00  0.00    +0.000 C 
BRANCH  17  19
ATOM     19  N   ALA A   1     -15.495  -8.335   2.296  0.00  0.00    +0.000 N 
ATOM     20  H1  ALA A   1     -16.309  -7.733   2.422  0.00  0.00    +0.000 HD
ATOM     21  H2  ALA A   1     -14.809  -7.862   1.708  0.00  0.00    +0.000 HD
ATOM     22  H3  ALA A   1     -15.781  -9.207   1.852  0.00  0.00    +0.000 HD
ENDBRANCH  17  19
ENDBRANCH  13  17
ENDBRANCH  11  15
ENDBRANCH   7  11
ENDBRANCH   6   9
BRANCH   6  23
ATOM     23  CB  ASP A   3     -10.530  -3.315   4.770  0.00  0.00    +0.000 C 
BRANCH  23  24
ATOM     24  CG  ASP A   3     -11.236  -1.994   5.008  0.00  0.00    +0.000 C 
ATOM     25  OD1 ASP A   3     -12.481  -1.960   4.927  0.00  0.00    +0.000 OA
BRANCH  24  26
ATOM     26  OD2 ASP A   3     -10.545  -0.990   5.280  0.00  0.00    +0.000 OA
ATOM     27  HD2 ASP A   3      -9.617  -1.235   5.292  0.00  0.00    +0.000 HD
ENDBRANCH  24  26
ENDBRANCH  23  24
ENDBRANCH   6  23
ENDBRANCH   2   6
ENDBRANCH   1   4
BRANCH   1  28
ATOM     28  C   THR A   4      -7.166  -1.480   7.688  0.00  0.00    +0.000 C 
ATOM     29  O   THR A   4      -6.746  -1.580   6.532  0.00  0.00    +0.000 OA
ATOM     30  N   THR A   5      -6.889  -0.444   8.477  0.00  0.00    +0.000 N 
ATOM     31  H   THR A   5      -7.327  -0.399   9.397  0.00  0.00    +0.000 HD
BRANCH  30  32
ATOM     32  CA  THR A   5      -5.986   0.628   8.081  0.00  0.00    +0.000 C 
BRANCH  32  33
ATOM     33  C   THR A   5      -4.611   0.487   8.722  0.00  0.00    +0.000 C 
ATOM     34  O   THR A   5      -3.832   1.445   8.727  0.00  0.00    +0.000 OA
ATOM     35  N   THR A   6      -4.295  -0.694   9.234  0.00  0.00    +0.000 N 
ATOM     36  H   THR A   6      -4.926  -1.470   9.031  0.00  0.00    +0.000 HD
BRANCH  35  37
ATOM     37  CA  THR A   6      -3.132  -0.988  10.059  0.00  0.00    +0.000 C 
BRANCH  37  38
ATOM     38  C   THR A   6      -2.499  -2.272   9.521  0.00  0.00    +0.000 C 
ATOM     39  O   THR A   6      -3.185  -3.035   8.828  0.00  0.00    +0.000 OA
ATOM     40  N   PRO A   7      -1.193  -2.537   9.750  0.00  0.00    +0.000 N 
ATOM     41  CA  PRO A   7      -0.741  -3.892   9.406  0.00  0.00    +0.000 C 
ATOM     42  CB  PRO A   7       0.790  -3.782   9.449  0.00  0.00    +0.000 C 
ATOM     43  CG  PRO A   7       1.084  -2.580  10.274  0.00  0.00    +0.000 C 
ATOM     44  CD  PRO A   7      -0.064  -1.640  10.062  0.00  0.00    +0.000 C 
BRANCH  41  45
ATOM     45  C   PRO A   7      -1.249  -4.939  10.391  0.00  0.00    +0.000 C 
ATOM     46  OXT PRO A   7      -1.867  -5.911   9.960  0.00  0.00    +0.000 OA
BRANCH  45  47
ATOM     47  O   PRO A   7      -1.027  -4.784  11.591  0.00  0.00    +0.000 OA
ATOM     48  H   PRO A   7      -0.535  -3.970  11.722  0.00  0.00    +0.000 HD
ENDBRANCH  45  47
ENDBRANCH  41  45
ENDBRANCH  37  38
BRANCH  37  49
ATOM     49  CB  THR A   6      -3.595  -1.118  11.517  0.00  0.00    +0.000 C 
ATOM     50  CG2 THR A   6      -2.474  -1.506  12.462  0.00  0.00    +0.000 C 
BRANCH  49  51
ATOM     51  OG1 THR A   6      -4.169   0.123  11.951  0.00  0.00    +0.000 OA
ATOM     52  HG1 THR A   6      -4.458   0.039  12.863  0.00  0.00    +0.000 HD
ENDBRANCH  49  51
ENDBRANCH  37  49
ENDBRANCH  35  37
ENDBRANCH  32  33
BRANCH  32  53
ATOM     53  CB  THR A   5      -6.593   1.991   8.430  0.00  0.00    +0.000 C 
ATOM     54  CG2 THR A   5      -8.084   2.009   8.115  0.00  0.00    +0.000 C 
BRANCH  53  55
ATOM     55  OG1 THR A   5      -6.404   2.264   9.823  0.00  0.00    +0.000 OA
ATOM     56  HG1 THR A   5      -6.786   3.119  10.035  0.00  0.00    +0.000 HD
ENDBRANCH  53  55
ENDBRANCH  32  53
ENDBRANCH  30  32
ENDBRANCH   1  28
BRANCH   1  57
ATOM     57  CB  THR A   4      -7.224  -3.495   9.177  0.00  0.00    +0.000 C 
ATOM     58  CG2 THR A   4      -6.162  -4.210   8.347  0.00  0.00    +0.000 C 
BRANCH  57  59
ATOM     59  OG1 THR A   4      -6.588  -2.743  10.218  0.00  0.00    +0.000 OA
ATOM     60  HG1 THR A   4      -6.067  -3.335  10.766  0.00  0.00    +0.000 HD
ENDBRANCH  57  59
ENDBRANCH   1  57
TORSDOF 23
