REMARK  Name = 6i74_ligand
REMARK  9 active torsions:
REMARK  status: ('A' for Active; 'I' for Inactive)
REMARK    1  A    between atoms: C_1  and  C_16
REMARK    2  A    between atoms: C_3  and  C_4
REMARK    3  A    between atoms: C_9  and  S_34
REMARK    4  A    between atoms: C_10  and  S_34
REMARK    5  A    between atoms: C_11  and  C_12
REMARK    6  A    between atoms: C_12  and  O_31
REMARK    7  A    between atoms: C_13  and  O_32
REMARK    8  A    between atoms: C_14  and  N_27
REMARK    9  A    between atoms: C_21  and  O_33
REMARK                            x       y       z     vdW  Elec       q    Type
REMARK                         _______ _______ _______ _____ _____    ______ ____
ROOT
ATOM      1  C   UNL     1     -19.752   8.709  -1.710  0.00  0.00    +0.000 C 
ATOM      2  C   UNL     1     -19.616   6.551  -0.884  0.00  0.00    +0.000 C 
ATOM      3  C   UNL     1     -18.103   6.682  -0.586  0.00  0.00    +0.000 C 
ATOM      4  C   UNL     1     -17.567   7.701  -1.612  0.00  0.00    +0.000 C 
ATOM      5  C   UNL     1     -18.267   9.067  -1.484  0.00  0.00    +0.000 C 
ATOM      6  O   UNL     1     -20.214   7.824  -0.742  0.00  0.00    +0.000 OA
ENDROOT
BRANCH   4   9
ATOM      7  C   UNL     1     -15.433   8.314  -0.374  0.00  0.00    +0.000 A 
ATOM      8  C   UNL     1     -14.108   8.262  -0.774  0.00  0.00    +0.000 A 
ATOM      9  N   UNL     1     -16.147   7.861  -1.458  0.00  0.00    +0.000 N 
ATOM     10  N   UNL     1     -14.122   7.774  -2.090  0.00  0.00    +0.000 NA
ATOM     11  N   UNL     1     -15.296   7.545  -2.471  0.00  0.00    +0.000 NA
BRANCH   8  12
ATOM     12  C   UNL     1     -12.898   8.594  -0.040  0.00  0.00    +0.000 A 
ATOM     13  C   UNL     1     -11.684   9.006  -0.642  0.00  0.00    +0.000 A 
ATOM     14  C   UNL     1     -10.534   9.287   0.051  0.00  0.00    +0.000 A 
ATOM     15  C   UNL     1     -10.518   9.141   1.426  0.00  0.00    +0.000 A 
ATOM     16  C   UNL     1     -11.660   8.719   2.072  0.00  0.00    +0.000 A 
ATOM     17  C   UNL     1     -12.808   8.453   1.358  0.00  0.00    +0.000 A 
ATOM     18  F   UNL     1     -11.656   9.174  -1.959  0.00  0.00    +0.000 F 
ATOM     19  F   UNL     1      -9.455   9.694  -0.602  0.00  0.00    +0.000 F 
ATOM     20  F   UNL     1      -9.471   9.396   2.098  0.00  0.00    +0.000 F 
ATOM     21  F   UNL     1     -11.649   8.593   3.384  0.00  0.00    +0.000 F 
ATOM     22  F   UNL     1     -13.877   8.021   2.010  0.00  0.00    +0.000 F 
ENDBRANCH   8  12
ENDBRANCH   4   9
BRANCH   3  23
ATOM     23  O   UNL     1     -17.894   7.124   0.715  0.00  0.00    +0.000 OA
ATOM     24  H   UNL     1     -16.951   7.198   0.879  0.00  0.00    +0.000 HD
ENDBRANCH   3  23
BRANCH   5  25
ATOM     25  O   UNL     1     -17.800   9.866  -2.531  0.00  0.00    +0.000 OA
ATOM     26  H   UNL     1     -16.877  10.082  -2.380  0.00  0.00    +0.000 HD
ENDBRANCH   5  25
BRANCH   2  27
ATOM     27  C   UNL     1     -20.296   5.580   0.086  0.00  0.00    +0.000 C 
BRANCH  27  28
ATOM     28  O   UNL     1     -21.646   5.417  -0.239  0.00  0.00    +0.000 OA
ATOM     29  H   UNL     1     -22.052   4.806   0.380  0.00  0.00    +0.000 HD
ENDBRANCH  27  28
ENDBRANCH   2  27
BRANCH   1  30
ATOM     30  S   UNL     1     -20.764  10.207  -1.706  0.00  0.00    +0.000 S 
BRANCH  30  37
ATOM     31  C   UNL     1     -25.374   8.944  -5.717  0.00  0.00    +0.000 C 
ATOM     32  C   UNL     1     -24.222   9.260  -4.742  0.00  0.00    +0.000 A 
ATOM     33  C   UNL     1     -23.820  10.564  -4.404  0.00  0.00    +0.000 A 
ATOM     34  C   UNL     1     -22.787  10.857  -3.512  0.00  0.00    +0.000 A 
ATOM     35  C   UNL     1     -23.478   8.275  -4.081  0.00  0.00    +0.000 A 
ATOM     36  C   UNL     1     -22.443   8.564  -3.182  0.00  0.00    +0.000 A 
ATOM     37  C   UNL     1     -22.077   9.866  -2.878  0.00  0.00    +0.000 A 
ENDBRANCH  30  37
ENDBRANCH   1  30
TORSDOF 8
