REMARK  Name = 6nw3_ligand
REMARK  18 active torsions:
REMARK  status: ('A' for Active; 'I' for Inactive)
REMARK    1  A    between atoms: C_16  and  C_17
REMARK    2  A    between atoms: C_17  and  N_18
REMARK    3  A    between atoms: N_18  and  C_19
REMARK    4  A    between atoms: C_19  and  C_20
REMARK    5  A    between atoms: C_19  and  C_27
REMARK    6  A    between atoms: N_21  and  C_22
REMARK    7  A    between atoms: C_22  and  C_23
REMARK    8  A    between atoms: C_23  and  C_24
REMARK    9  A    between atoms: C_23  and  C_25
REMARK   10  A    between atoms: C_27  and  C_28
REMARK   11  A    between atoms: C_28  and  C_29
REMARK   12  A    between atoms: C_29  and  C_30
REMARK   13  A    between atoms: C_34  and  N_35
REMARK   14  A    between atoms: N_35  and  C_36
REMARK   15  A    between atoms: N_35  and  S_39
REMARK   16  A    between atoms: C_36  and  C_37
REMARK   17  A    between atoms: C_37  and  C_38
REMARK   18  A    between atoms: S_39  and  C_41
REMARK                            x       y       z     vdW  Elec       q    Type
REMARK                         _______ _______ _______ _____ _____    ______ ____
ROOT
ATOM      1  C   UNL     1      -3.870 -13.956  29.264  0.00  0.00    +0.000 A 
ATOM      2  C   UNL     1      -3.497 -12.872  30.057  0.00  0.00    +0.000 A 
ATOM      3  C   UNL     1      -3.663 -12.926  31.441  0.00  0.00    +0.000 A 
ATOM      4  C   UNL     1      -4.201 -14.053  32.055  0.00  0.00    +0.000 A 
ATOM      5  C   UNL     1      -4.599 -15.147  31.279  0.00  0.00    +0.000 A 
ATOM      6  O   UNL     1      -1.294 -17.715  33.045  0.00  0.00    +0.000 OA
ATOM      7  C   UNL     1      -1.580 -17.407  31.891  0.00  0.00    +0.000 C 
ATOM      8  C   UNL     1      -0.473 -17.212  30.880  0.00  0.00    +0.000 A 
ATOM      9  C   UNL     1      -0.683 -16.382  29.778  0.00  0.00    +0.000 A 
ATOM     10  C   UNL     1       0.325 -16.164  28.837  0.00  0.00    +0.000 A 
ATOM     11  C   UNL     1       0.031 -15.268  27.657  0.00  0.00    +0.000 C 
ATOM     12  C   UNL     1      -1.135 -14.287  27.861  0.00  0.00    +0.000 C 
ATOM     13  C   UNL     1      -2.479 -14.685  27.202  0.00  0.00    +0.000 C 
ATOM     14  C   UNL     1      -3.697 -13.913  27.761  0.00  0.00    +0.000 C 
ATOM     15  C   UNL     1      -5.170 -16.383  31.936  0.00  0.00    +0.000 C 
ATOM     16  C   UNL     1      -4.072 -17.328  32.467  0.00  0.00    +0.000 C 
ATOM     17  N   UNL     1      -2.916 -17.225  31.556  0.00  0.00    +0.000 N 
ATOM     18  C   UNL     1      -4.417 -15.090  29.887  0.00  0.00    +0.000 A 
ATOM     19  C   UNL     1       1.571 -16.777  28.996  0.00  0.00    +0.000 A 
ATOM     20  C   UNL     1       1.822 -17.610  30.098  0.00  0.00    +0.000 A 
ATOM     21  C   UNL     1       0.784 -17.811  31.031  0.00  0.00    +0.000 A 
ATOM     22  H   UNL     1      -3.118 -16.997  30.582  0.00  0.00    +0.000 HD
ENDROOT
BRANCH  16  23
ATOM     23  C   UNL     1      -4.543 -18.810  32.713  0.00  0.00    +0.000 C 
BRANCH  23  24
ATOM     24  N   UNL     1      -3.431 -19.570  33.367  0.00  0.00    +0.000 N 
ATOM     25  H   UNL     1      -2.717 -18.873  33.578  0.00  0.00    +0.000 HD
ATOM     26  H   UNL     1      -3.197 -20.319  32.715  0.00  0.00    +0.000 HD
BRANCH  24  27
ATOM     27  C   UNL     1      -3.707 -20.246  34.653  0.00  0.00    +0.000 C 
BRANCH  27  28
ATOM     28  C   UNL     1      -3.895 -19.240  35.810  0.00  0.00    +0.000 C 
ATOM     29  N   UNL     1      -5.058 -19.349  36.554  0.00  0.00    +0.000 N 
ATOM     30  O   UNL     1      -3.050 -18.380  36.058  0.00  0.00    +0.000 OA
ATOM     31  H   UNL     1      -5.734 -20.075  36.315  0.00  0.00    +0.000 HD
BRANCH  29  32
ATOM     32  C   UNL     1      -5.346 -18.449  37.678  0.00  0.00    +0.000 C 
BRANCH  32  33
ATOM     33  C   UNL     1      -5.607 -19.227  38.981  0.00  0.00    +0.000 C 
ATOM     34  C   UNL     1      -5.674 -18.318  40.210  0.00  0.00    +0.000 C 
ATOM     35  C   UNL     1      -6.878 -20.068  38.891  0.00  0.00    +0.000 C 
ENDBRANCH  32  33
ENDBRANCH  29  32
ENDBRANCH  27  28
BRANCH  27  36
ATOM     36  C   UNL     1      -2.615 -21.295  35.005  0.00  0.00    +0.000 C 
BRANCH  36  37
ATOM     37  C   UNL     1      -2.785 -22.000  36.348  0.00  0.00    +0.000 C 
BRANCH  37  38
ATOM     38  C   UNL     1      -1.675 -23.008  36.661  0.00  0.00    +0.000 C 
ATOM     39  C   UNL     1      -1.864 -23.669  38.016  0.00  0.00    +0.000 C 
ENDBRANCH  37  38
ENDBRANCH  36  37
ENDBRANCH  27  36
ENDBRANCH  24  27
ENDBRANCH  23  24
ENDBRANCH  16  23
BRANCH  20  40
ATOM     40  N   UNL     1       3.116 -18.245  30.262  0.00  0.00    +0.000 N 
BRANCH  40  41
ATOM     41  S   UNL     1       3.809 -19.055  28.984  0.00  0.00    +0.000 S 
ATOM     42  O   UNL     1       4.613 -20.071  29.548  0.00  0.00    +0.000 OA
ATOM     43  C   UNL     1       4.838 -17.980  28.180  0.00  0.00    +0.000 C 
ATOM     44  O   UNL     1       2.782 -19.366  28.057  0.00  0.00    +0.000 OA
ENDBRANCH  40  41
BRANCH  40  45
ATOM     45  C   UNL     1       3.848 -18.204  31.568  0.00  0.00    +0.000 C 
BRANCH  45  46
ATOM     46  C   UNL     1       4.082 -16.787  32.176  0.00  0.00    +0.000 C 
ATOM     47  C   UNL     1       4.425 -15.693  31.162  0.00  0.00    +0.000 C 
ENDBRANCH  45  46
ENDBRANCH  40  45
ENDBRANCH  20  40
TORSDOF 13
