REMARK  Name = 6r7d_ligand
REMARK  10 active torsions:
REMARK  status: ('A' for Active; 'I' for Inactive)
REMARK    1  A    between atoms: C_4  and  N_20
REMARK    2  A    between atoms: C_8  and  N_20
REMARK    3  A    between atoms: C_10  and  C_11
REMARK    4  A    between atoms: C_11  and  C_22
REMARK    5  A    between atoms: C_12  and  C_13
REMARK    6  A    between atoms: C_13  and  O_25
REMARK    7  A    between atoms: C_14  and  O_29
REMARK    8  A    between atoms: N_20  and  C_30
REMARK    9  A    between atoms: C_28  and  O_29
REMARK   10  A    between atoms: C_30  and  C_31
REMARK                            x       y       z     vdW  Elec       q    Type
REMARK                         _______ _______ _______ _____ _____    ______ ____
ROOT
ATOM      1  C   UNL     1       4.040  58.156  29.655  0.00  0.00    +0.000 A 
ATOM      2  C   UNL     1       3.166  57.181  29.171  0.00  0.00    +0.000 A 
ATOM      3  C   UNL     1       4.200  55.572  30.384  0.00  0.00    +0.000 A 
ATOM      4  N   UNL     1       3.222  55.885  29.521  0.00  0.00    +0.000 NA
ATOM      5  N   UNL     1       5.102  56.402  30.937  0.00  0.00    +0.000 NA
ATOM      6  C   UNL     1       4.995  57.683  30.535  0.00  0.00    +0.000 A 
ENDROOT
BRANCH   3   7
ATOM      7  C   UNL     1       4.344  54.177  30.792  0.00  0.00    +0.000 C 
ATOM      8  O   UNL     1       5.414  53.830  31.314  0.00  0.00    +0.000 OA
BRANCH   7  10
ATOM      9  C   UNL     1       3.229  51.887  31.254  0.00  0.00    +0.000 C 
ATOM     10  C   UNL     1       3.188  53.233  30.575  0.00  0.00    +0.000 C 
ATOM     11  C   UNL     1       3.298  51.985  29.727  0.00  0.00    +0.000 C 
BRANCH   9  12
ATOM     12  C   UNL     1       2.039  51.296  31.979  0.00  0.00    +0.000 C 
ATOM     13  O   UNL     1       2.139  50.612  33.009  0.00  0.00    +0.000 OA
BRANCH  12  14
ATOM     14  O   UNL     1       0.862  51.554  31.352  0.00  0.00    +0.000 OA
ATOM     15  H   UNL     1       1.025  52.101  30.580  0.00  0.00    +0.000 HD
ENDBRANCH  12  14
ENDBRANCH   9  12
ENDBRANCH   7  10
ENDBRANCH   3   7
BRANCH   6  17
ATOM     16  C   UNL     1       6.823  58.159  31.970  0.00  0.00    +0.000 C 
ATOM     17  O   UNL     1       5.866  58.627  31.007  0.00  0.00    +0.000 OA
ENDBRANCH   6  17
BRANCH   1  18
ATOM     18  N   UNL     1       3.965  59.522  29.267  0.00  0.00    +0.000 N 
BRANCH  18  22
ATOM     19  C   UNL     1       6.498  59.197  25.955  0.00  0.00    +0.000 A 
ATOM     20  C   UNL     1       7.512  60.126  25.767  0.00  0.00    +0.000 A 
ATOM     21  C   UNL     1       7.685  61.184  26.658  0.00  0.00    +0.000 A 
ATOM     22  C   UNL     1       5.010  60.476  29.073  0.00  0.00    +0.000 A 
ATOM     23  C   UNL     1       5.222  61.552  29.956  0.00  0.00    +0.000 A 
ATOM     24  C   UNL     1       6.223  62.500  29.745  0.00  0.00    +0.000 A 
ATOM     25  C   UNL     1       7.035  62.394  28.626  0.00  0.00    +0.000 A 
ATOM     26  C   UNL     1       6.859  61.318  27.756  0.00  0.00    +0.000 A 
ATOM     27  C   UNL     1       5.847  60.363  27.970  0.00  0.00    +0.000 A 
ATOM     28  C   UNL     1       5.672  59.327  27.066  0.00  0.00    +0.000 A 
ENDBRANCH  18  22
BRANCH  18  29
ATOM     29  C   UNL     1       2.622  60.120  29.126  0.00  0.00    +0.000 C 
BRANCH  29  32
ATOM     30  C   UNL     1       1.126  60.988  27.161  0.00  0.00    +0.000 C 
ATOM     31  C   UNL     1       2.458  60.695  26.557  0.00  0.00    +0.000 C 
ATOM     32  C   UNL     1       2.026  59.948  27.785  0.00  0.00    +0.000 C 
ENDBRANCH  29  32
ENDBRANCH  18  29
ENDBRANCH   1  18
TORSDOF 9
