REMARK  Name = 6i64_ligand
REMARK  5 active torsions:
REMARK  status: ('A' for Active; 'I' for Inactive)
REMARK    1  A    between atoms: C_1  and  C_14
REMARK    2  A    between atoms: C_10  and  O_15
REMARK    3  A    between atoms: C_11  and  O_16
REMARK    4  A    between atoms: C_12  and  C_14
REMARK    5  A    between atoms: C_13  and  C_14
REMARK                            x       y       z     vdW  Elec       q    Type
REMARK                         _______ _______ _______ _____ _____    ______ ____
ROOT
ATOM      1  C   UNL     1      48.067 -29.821 -96.222  0.00  0.00    +0.000 C 
ATOM      2  C   UNL     1      48.836 -28.776 -97.003  0.00  0.00    +0.000 C 
ENDROOT
BRANCH   2   8
ATOM      3  C   UNL     1      47.000 -25.523 -96.839  0.00  0.00    +0.000 A 
ATOM      4  C   UNL     1      48.817 -25.519 -95.241  0.00  0.00    +0.000 A 
ATOM      5  C   UNL     1      47.352 -26.826 -97.233  0.00  0.00    +0.000 A 
ATOM      6  C   UNL     1      49.162 -26.815 -95.641  0.00  0.00    +0.000 A 
ATOM      7  C   UNL     1      47.735 -24.864 -95.842  0.00  0.00    +0.000 A 
ATOM      8  C   UNL     1      48.438 -27.472 -96.634  0.00  0.00    +0.000 A 
BRANCH   7   9
ATOM      9  O   UNL     1      47.401 -23.590 -95.445  0.00  0.00    +0.000 OA
ATOM     10  H   UNL     1      48.008 -23.300 -94.760  0.00  0.00    +0.000 HD
ENDBRANCH   7   9
ENDBRANCH   2   8
BRANCH   2  16
ATOM     11  C   UNL     1      49.626 -28.858-100.579  0.00  0.00    +0.000 A 
ATOM     12  C   UNL     1      47.432 -29.816-100.285  0.00  0.00    +0.000 A 
ATOM     13  C   UNL     1      49.731 -28.645 -99.215  0.00  0.00    +0.000 A 
ATOM     14  C   UNL     1      47.544 -29.603 -98.912  0.00  0.00    +0.000 A 
ATOM     15  C   UNL     1      48.487 -29.441-101.110  0.00  0.00    +0.000 A 
ATOM     16  C   UNL     1      48.689 -29.005 -98.375  0.00  0.00    +0.000 A 
BRANCH  15  17
ATOM     17  O   UNL     1      48.419 -29.630-102.439  0.00  0.00    +0.000 OA
ATOM     18  H   UNL     1      47.579 -30.040-102.660  0.00  0.00    +0.000 HD
ENDBRANCH  15  17
ENDBRANCH   2  16
TORSDOF 4
