REMARK  Name = 6h7d_ligand
REMARK  6 active torsions:
REMARK  status: ('A' for Active; 'I' for Inactive)
REMARK    1  A    between atoms: C_1  and  O_8
REMARK    2  A    between atoms: C_2  and  O_9
REMARK    3  A    between atoms: C_3  and  O_10
REMARK    4  A    between atoms: C_4  and  C_5
REMARK    5  A    between atoms: C_5  and  O_12
REMARK    6  A    between atoms: C_6  and  O_7
REMARK                            x       y       z     vdW  Elec       q    Type
REMARK                         _______ _______ _______ _____ _____    ______ ____
ROOT
ATOM      1  C   UNL     1     -19.659  -5.872  -2.636  0.00  0.00    +0.000 C 
ATOM      2  C   UNL     1     -19.690  -6.415  -1.243  0.00  0.00    +0.000 C 
ATOM      3  C   UNL     1     -20.591  -5.598  -0.374  0.00  0.00    +0.000 C 
ATOM      4  C   UNL     1     -22.006  -5.652  -0.945  0.00  0.00    +0.000 C 
ATOM      5  C   UNL     1     -21.071  -5.899  -3.227  0.00  0.00    +0.000 C 
ATOM      6  O   UNL     1     -22.019  -5.150  -2.340  0.00  0.00    +0.000 OA
ENDROOT
BRANCH   5   7
ATOM      7  O   UNL     1     -21.147  -5.334  -4.453  0.00  0.00    +0.000 OA
ATOM      8  H   UNL     1     -20.550  -5.790  -5.052  0.00  0.00    +0.000 HD
ENDBRANCH   5   7
BRANCH   1   9
ATOM      9  O   UNL     1     -18.788  -6.674  -3.452  0.00  0.00    +0.000 OA
ATOM     10  H   UNL     1     -17.902  -6.659  -3.083  0.00  0.00    +0.000 HD
ENDBRANCH   1   9
BRANCH   2  11
ATOM     11  O   UNL     1     -18.369  -6.486  -0.628  0.00  0.00    +0.000 OA
ATOM     12  H   UNL     1     -17.787  -7.010  -1.183  0.00  0.00    +0.000 HD
ENDBRANCH   2  11
BRANCH   3  13
ATOM     13  O   UNL     1     -20.571  -6.105   0.969  0.00  0.00    +0.000 OA
ATOM     14  H   UNL     1     -19.675  -6.064   1.312  0.00  0.00    +0.000 HD
ENDBRANCH   3  13
BRANCH   4  15
ATOM     15  C   UNL     1     -22.976  -4.857  -0.122  0.00  0.00    +0.000 C 
BRANCH  15  16
ATOM     16  O   UNL     1     -24.182  -4.828  -0.849  0.00  0.00    +0.000 OA
ATOM     17  H   UNL     1     -24.838  -4.327  -0.359  0.00  0.00    +0.000 HD
ENDBRANCH  15  16
ENDBRANCH   4  15
TORSDOF 6
