REMARK  Name = 6jb0_ligand
REMARK  12 active torsions:
REMARK  status: ('A' for Active; 'I' for Inactive)
REMARK    1  A    between atoms: C_1  and  O_7
REMARK    2  A    between atoms: C_2  and  O_8
REMARK    3  A    between atoms: C_3  and  O_9
REMARK    4  A    between atoms: C_4  and  O_10
REMARK    5  A    between atoms: C_5  and  C_6
REMARK    6  A    between atoms: C_6  and  O_12
REMARK    7  A    between atoms: O_7  and  C_13
REMARK    8  A    between atoms: C_14  and  O_19
REMARK    9  A    between atoms: C_15  and  O_20
REMARK   10  A    between atoms: C_16  and  O_21
REMARK   11  A    between atoms: C_17  and  C_18
REMARK   12  A    between atoms: C_18  and  O_23
REMARK                            x       y       z     vdW  Elec       q    Type
REMARK                         _______ _______ _______ _____ _____    ______ ____
ROOT
ATOM      1  O   UNL     1      -6.561 -33.038 -15.204  0.00  0.00    +0.000 OA
ENDROOT
BRANCH   1   2
ATOM      2  C   UNL     1      -6.358 -32.342 -13.998  0.00  0.00    +0.000 C 
ATOM      3  C   UNL     1      -7.694 -32.083 -13.266  0.00  0.00    +0.000 C 
ATOM      4  C   UNL     1      -8.526 -31.050 -14.075  0.00  0.00    +0.000 C 
ATOM      5  C   UNL     1      -7.736 -29.767 -14.271  0.00  0.00    +0.000 C 
ATOM      6  C   UNL     1      -6.431 -30.145 -14.994  0.00  0.00    +0.000 C 
ATOM      7  O   UNL     1      -5.685 -31.075 -14.198  0.00  0.00    +0.000 OA
BRANCH   3   8
ATOM      8  O   UNL     1      -8.435 -33.325 -13.138  0.00  0.00    +0.000 OA
ATOM      9  H   UNL     1      -7.914 -33.957 -12.637  0.00  0.00    +0.000 HD
ENDBRANCH   3   8
BRANCH   4  10
ATOM     10  O   UNL     1      -9.748 -30.770 -13.310  0.00  0.00    +0.000 OA
ATOM     11  H   UNL     1     -10.242 -31.584 -13.190  0.00  0.00    +0.000 HD
ENDBRANCH   4  10
BRANCH   5  12
ATOM     12  O   UNL     1      -8.509 -28.821 -15.015  0.00  0.00    +0.000 OA
ATOM     13  H   UNL     1      -9.311 -28.613 -14.530  0.00  0.00    +0.000 HD
ENDBRANCH   5  12
BRANCH   6  14
ATOM     14  C   UNL     1      -5.553 -28.952 -15.190  0.00  0.00    +0.000 C 
BRANCH  14  15
ATOM     15  O   UNL     1      -4.406 -29.249 -16.058  0.00  0.00    +0.000 OA
ATOM     16  H   UNL     1      -3.869 -28.459 -16.158  0.00  0.00    +0.000 HD
ENDBRANCH  14  15
ENDBRANCH   6  14
ENDBRANCH   1   2
BRANCH   1  17
ATOM     17  C   UNL     1      -5.359 -33.530 -15.788  0.00  0.00    +0.000 C 
ATOM     18  C   UNL     1      -5.716 -34.056 -17.141  0.00  0.00    +0.000 C 
ATOM     19  C   UNL     1      -6.592 -35.290 -17.045  0.00  0.00    +0.000 C 
ATOM     20  C   UNL     1      -5.934 -36.264 -16.096  0.00  0.00    +0.000 C 
ATOM     21  C   UNL     1      -5.691 -35.655 -14.748  0.00  0.00    +0.000 C 
ATOM     22  O   UNL     1      -4.830 -34.518 -14.939  0.00  0.00    +0.000 OA
BRANCH  18  23
ATOM     23  O   UNL     1      -6.345 -33.072 -17.944  0.00  0.00    +0.000 OA
ATOM     24  H   UNL     1      -6.557 -33.448 -18.801  0.00  0.00    +0.000 HD
ENDBRANCH  18  23
BRANCH  19  25
ATOM     25  O   UNL     1      -6.723 -35.891 -18.357  0.00  0.00    +0.000 OA
ATOM     26  H   UNL     1      -7.278 -36.672 -18.296  0.00  0.00    +0.000 HD
ENDBRANCH  19  25
BRANCH  20  27
ATOM     27  O   UNL     1      -6.875 -37.298 -15.932  0.00  0.00    +0.000 OA
ATOM     28  H   UNL     1      -6.520 -37.960 -15.334  0.00  0.00    +0.000 HD
ENDBRANCH  20  27
BRANCH  21  29
ATOM     29  C   UNL     1      -5.055 -36.779 -13.859  0.00  0.00    +0.000 C 
BRANCH  29  30
ATOM     30  O   UNL     1      -5.044 -36.180 -12.611  0.00  0.00    +0.000 OA
ATOM     31  H   UNL     1      -4.668 -36.787 -11.969  0.00  0.00    +0.000 HD
ENDBRANCH  29  30
ENDBRANCH  21  29
ENDBRANCH   1  17
TORSDOF 12
