REMARK  Name = 6s55_ligand
REMARK  6 active torsions:
REMARK  status: ('A' for Active; 'I' for Inactive)
REMARK    1  A    between atoms: C_5  and  N_14
REMARK    2  A    between atoms: C_6  and  C_7
REMARK    3  A    between atoms: N_9  and  S_10
REMARK    4  A    between atoms: S_10  and  C_13
REMARK    5  A    between atoms: C_15  and  C_17
REMARK    6  A    between atoms: C_17  and  N_18
REMARK                            x       y       z     vdW  Elec       q    Type
REMARK                         _______ _______ _______ _____ _____    ______ ____
ROOT
ATOM      1  C   UNL     1     -23.358  45.792   9.093  0.00  0.00    +0.000 A 
ATOM      2  C   UNL     1     -22.652  46.699   8.308  0.00  0.00    +0.000 A 
ATOM      3  C   UNL     1     -22.741  44.650   9.580  0.00  0.00    +0.000 A 
ATOM      4  C   UNL     1     -21.314  46.452   8.009  0.00  0.00    +0.000 A 
ATOM      5  C   UNL     1     -20.690  45.312   8.483  0.00  0.00    +0.000 A 
ATOM      6  C   UNL     1     -21.395  44.408   9.263  0.00  0.00    +0.000 A 
ATOM      7 BR   UNL     1     -20.448  42.880   9.869  0.00  0.00    +0.000 Br
ENDROOT
BRANCH   2   8
ATOM      8  N   UNL     1     -23.232  47.886   7.798  0.00  0.00    +0.000 N 
ATOM      9  C   UNL     1     -24.511  48.314   7.888  0.00  0.00    +0.000 C 
ATOM     10  O   UNL     1     -25.416  47.699   8.450  0.00  0.00    +0.000 OA
ATOM     11  H   UNL     1     -22.597  48.504   7.293  0.00  0.00    +0.000 HD
BRANCH   9  12
ATOM     12  C   UNL     1     -24.753  49.658   7.225  0.00  0.00    +0.000 C 
BRANCH  12  13
ATOM     13  N   UNL     1     -26.102  50.186   7.344  0.00  0.00    +0.000 N 
ATOM     14  C   UNL     1     -26.596  50.875   8.465  0.00  0.00    +0.000 C 
ATOM     15  O   UNL     1     -25.960  51.099   9.491  0.00  0.00    +0.000 OA
ATOM     16  C   UNL     1     -28.016  51.252   8.141  0.00  0.00    +0.000 C 
ATOM     17  N   UNL     1     -28.174  50.711   6.807  0.00  0.00    +0.000 N 
ATOM     18  C   UNL     1     -27.063  50.105   6.350  0.00  0.00    +0.000 C 
ATOM     19  O   UNL     1     -26.904  49.562   5.262  0.00  0.00    +0.000 OA
ATOM     20  H   UNL     1     -29.038  50.782   6.269  0.00  0.00    +0.000 HD
ENDBRANCH  12  13
ENDBRANCH   9  12
ENDBRANCH   2   8
BRANCH   3  21
ATOM     21  S   UNL     1     -23.740  43.549  10.571  0.00  0.00    +0.000 S 
ATOM     22  O   UNL     1     -23.991  42.394   9.771  0.00  0.00    +0.000 OA
ATOM     23  O   UNL     1     -23.102  43.400  11.842  0.00  0.00    +0.000 OA
BRANCH  21  30
ATOM     24  C   UNL     1     -27.565  44.146  10.448  0.00  0.00    +0.000 C 
ATOM     25  C   UNL     1     -26.209  44.189   9.805  0.00  0.00    +0.000 C 
ATOM     26  C   UNL     1     -25.303  45.412  11.721  0.00  0.00    +0.000 C 
ATOM     27  C   UNL     1     -26.808  46.680  13.260  0.00  0.00    +0.000 C 
ATOM     28  C   UNL     1     -26.665  45.436  12.400  0.00  0.00    +0.000 C 
ATOM     29  C   UNL     1     -27.758  45.355  11.347  0.00  0.00    +0.000 C 
ATOM     30  N   UNL     1     -25.194  44.220  10.865  0.00  0.00    +0.000 NA
ENDBRANCH  21  30
ENDBRANCH   3  21
TORSDOF 5
