REMARK  Name = 6g9f_ligand
REMARK  5 active torsions:
REMARK  status: ('A' for Active; 'I' for Inactive)
REMARK    1  A    between atoms: C_5  and  C_6
REMARK    2  A    between atoms: C_11  and  N_12
REMARK    3  A    between atoms: N_12  and  O_13
REMARK    4  A    between atoms: O_13  and  S_14
REMARK    5  A    between atoms: S_14  and  O_17
REMARK                            x       y       z     vdW  Elec       q    Type
REMARK                         _______ _______ _______ _____ _____    ______ ____
ROOT
ATOM      1  O   UNL     1      11.004  38.567  43.552  0.00  0.00    +0.000 OA
ATOM      2  C   UNL     1      10.139  37.877  43.058  0.00  0.00    +0.000 C 
ATOM      3  N   UNL     1       9.056  37.541  43.728  0.00  0.00    +0.000 N 
ATOM      4  C   UNL     1       7.848  36.939  43.193  0.00  0.00    +0.000 C 
ATOM      5  C   UNL     1       9.064  37.754  45.170  0.00  0.00    +0.000 C 
ATOM      6  C   UNL     1       7.862  38.634  45.530  0.00  0.00    +0.000 C 
ATOM      7  C   UNL     1       6.574  38.168  44.864  0.00  0.00    +0.000 C 
ATOM      8  C   UNL     1       6.771  37.992  43.372  0.00  0.00    +0.000 C 
ENDROOT
BRANCH   5   9
ATOM      9  C   UNL     1       9.064  36.441  45.894  0.00  0.00    +0.000 C 
ATOM     10  O   UNL     1       8.398  36.320  46.903  0.00  0.00    +0.000 OA
ATOM     11  N   UNL     1       9.813  35.457  45.401  0.00  0.00    +0.000 N 
ATOM     12  H   UNL     1       9.844  34.554  45.874  0.00  0.00    +0.000 HD
ATOM     13  H   UNL     1      10.355  35.606  44.550  0.00  0.00    +0.000 HD
ENDBRANCH   5   9
BRANCH   8  14
ATOM     14  N   UNL     1       7.181  39.268  42.750  0.00  0.00    +0.000 N 
ATOM     15  H   UNL     1       7.183  39.162  41.736  0.00  0.00    +0.000 HD
ATOM     16  H   UNL     1       8.115  39.516  43.075  0.00  0.00    +0.000 HD
BRANCH  14  17
ATOM     17  O   UNL     1       6.313  40.250  43.095  0.00  0.00    +0.000 OA
BRANCH  17  18
ATOM     18  S   UNL     1       6.669  41.748  42.940  0.00  0.00    +0.000 S 
ATOM     19  O   UNL     1       7.377  42.277  44.129  0.00  0.00    +0.000 OA
ATOM     20  O   UNL     1       7.591  41.903  41.793  0.00  0.00    +0.000 OA
BRANCH  18  21
ATOM     21  O   UNL     1       5.410  42.513  42.726  0.00  0.00    +0.000 OA
ATOM     22  H   UNL     1       4.954  42.167  41.955  0.00  0.00    +0.000 HD
ENDBRANCH  18  21
ENDBRANCH  17  18
ENDBRANCH  14  17
ENDBRANCH   8  14
TORSDOF 5
