REMARK  Name = 6hle_ligand
REMARK  17 active torsions:
REMARK  status: ('A' for Active; 'I' for Inactive)
REMARK    1  A    between atoms: N_1  and  C_2
REMARK    2  A    between atoms: C_11  and  C_14
REMARK    3  A    between atoms: C_14  and  C_15
REMARK    4  A    between atoms: C_15  and  C_16
REMARK    5  A    between atoms: C_16  and  N_17
REMARK    6  A    between atoms: C_22  and  C_25
REMARK    7  A    between atoms: C_25  and  C_26
REMARK    8  A    between atoms: C_26  and  C_27
REMARK    9  A    between atoms: C_27  and  N_28
REMARK   10  A    between atoms: C_33  and  C_34
REMARK   11  A    between atoms: C_34  and  C_35
REMARK   12  A    between atoms: C_34  and  C_36
REMARK   13  A    between atoms: C_34  and  C_37
REMARK   14  A    between atoms: C_41  and  C_42
REMARK   15  A    between atoms: N_49  and  C_50
REMARK   16  A    between atoms: C_50  and  C_51
REMARK   17  A    between atoms: C_54  and  C_55
REMARK                            x       y       z     vdW  Elec       q    Type
REMARK                         _______ _______ _______ _____ _____    ______ ____
ROOT
ATOM      1  C   UNL     1      56.254 -36.676  -6.686  0.00  0.00    +0.000 C 
ATOM      2  C   UNL     1      55.397 -36.452  -5.597  0.00  0.00    +0.000 C 
ATOM      3  O   UNL     1      54.695 -37.358  -5.151  0.00  0.00    +0.000 OA
ATOM      4  C   UNL     1      55.662 -36.179  -7.995  0.00  0.00    +0.000 C 
ATOM      5  C   UNL     1      56.758 -35.487  -8.813  0.00  0.00    +0.000 C 
ATOM      6  C   UNL     1      57.947 -36.400  -9.093  0.00  0.00    +0.000 C 
ATOM      7  C   UNL     1      58.681 -35.817 -10.283  0.00  0.00    +0.000 C 
ATOM      8  N   UNL     1      57.685 -35.583 -11.352  0.00  0.00    +0.000 N 
ATOM      9  N   UNL     1      55.352 -35.190  -4.971  0.00  0.00    +0.000 N 
ATOM     10  C   UNL     1      54.501 -34.960  -3.772  0.00  0.00    +0.000 C 
ATOM     11  C   UNL     1      53.122 -35.218  -3.988  0.00  0.00    +0.000 C 
ATOM     12  O   UNL     1      52.494 -35.902  -3.175  0.00  0.00    +0.000 OA
ATOM     13  N   UNL     1      52.436 -34.742  -5.122  0.00  0.00    +0.000 N 
ATOM     14  C   UNL     1      50.973 -34.993  -5.295  0.00  0.00    +0.000 C 
ATOM     15  C   UNL     1      50.706 -35.489  -6.599  0.00  0.00    +0.000 C 
ATOM     16  O   UNL     1      51.343 -35.092  -7.580  0.00  0.00    +0.000 OA
ATOM     17  N   UNL     1      49.716 -36.481  -6.782  0.00  0.00    +0.000 N 
ATOM     18  C   UNL     1      49.420 -37.137  -8.083  0.00  0.00    +0.000 C 
ATOM     19  C   UNL     1      48.046 -37.030  -8.429  0.00  0.00    +0.000 C 
ATOM     20  O   UNL     1      47.160 -36.973  -7.572  0.00  0.00    +0.000 OA
ATOM     21  N   UNL     1      47.667 -37.028  -9.783  0.00  0.00    +0.000 N 
ATOM     22  C   UNL     1      46.263 -37.000 -10.291  0.00  0.00    +0.000 C 
ATOM     23  C   UNL     1      46.227 -36.710 -11.827  0.00  0.00    +0.000 C 
ATOM     24  C   UNL     1      46.792 -35.302 -12.111  0.00  0.00    +0.000 C 
ATOM     25  C   UNL     1      47.179 -35.081 -13.613  0.00  0.00    +0.000 C 
ATOM     26  C   UNL     1      47.361 -33.557 -13.846  0.00  0.00    +0.000 C 
ATOM     27  N   UNL     1      48.166 -33.135 -15.035  0.00  0.00    +0.000 N 
ATOM     28  C   UNL     1      57.772 -34.502 -12.234  0.00  0.00    +0.000 C 
ATOM     29  C   UNL     1      56.789 -34.341 -13.203  0.00  0.00    +0.000 C 
ATOM     30  C   UNL     1      55.673 -33.450 -12.669  0.00  0.00    +0.000 C 
ATOM     31  C   UNL     1      53.611 -32.299 -13.242  0.00  0.00    +0.000 C 
ATOM     32  C   UNL     1      52.690 -31.938 -14.409  0.00  0.00    +0.000 C 
ATOM     33  C   UNL     1      51.424 -32.975 -16.294  0.00  0.00    +0.000 C 
ATOM     34  C   UNL     1      50.273 -32.067 -15.829  0.00  0.00    +0.000 C 
ATOM     35  C   UNL     1      49.452 -32.561 -14.795  0.00  0.00    +0.000 C 
ATOM     36  C   UNL     1      52.700 -34.353 -14.764  0.00  0.00    +0.000 C 
ATOM     37  C   UNL     1      54.047 -34.519 -14.065  0.00  0.00    +0.000 C 
ATOM     38  N   UNL     1      54.651 -33.225 -13.704  0.00  0.00    +0.000 N 
ATOM     39  N   UNL     1      52.602 -33.035 -15.397  0.00  0.00    +0.000 N 
ATOM     40  O   UNL     1      58.711 -33.712 -12.151  0.00  0.00    +0.000 OA
ATOM     41  O   UNL     1      49.812 -32.436 -13.626  0.00  0.00    +0.000 OA
ATOM     42  H   UNL     1      56.906 -36.234 -11.449  0.00  0.00    +0.000 HD
ATOM     43  H   UNL     1      55.911 -34.423  -5.345  0.00  0.00    +0.000 HD
ATOM     44  H   UNL     1      52.944 -34.219  -5.835  0.00  0.00    +0.000 HD
ATOM     45  H   UNL     1      49.169 -36.765  -5.969  0.00  0.00    +0.000 HD
ATOM     46  H   UNL     1      48.414 -37.047 -10.477  0.00  0.00    +0.000 HD
ATOM     47  H   UNL     1      47.809 -33.253 -15.983  0.00  0.00    +0.000 HD
ATOM     48  H   UNL     1      55.098 -32.803 -14.518  0.00  0.00    +0.000 HD
ATOM     49  H   UNL     1      53.414 -32.893 -15.998  0.00  0.00    +0.000 HD
ENDROOT
BRANCH   1  50
ATOM     50  N   UNL     1      56.586 -38.119  -6.765  0.00  0.00    +0.000 N 
ATOM     51  H   UNL     1      56.980 -38.425  -5.875  0.00  0.00    +0.000 HD
ATOM     52  H   UNL     1      55.739 -38.651  -6.964  0.00  0.00    +0.000 HD
ATOM     53  H   UNL     1      57.266 -38.270  -7.510  0.00  0.00    +0.000 HD
ENDBRANCH   1  50
BRANCH  18  54
ATOM     54  C   UNL     1      49.838 -38.649  -7.985  0.00  0.00    +0.000 C 
ATOM     55  C   UNL     1      49.733 -39.326  -9.369  0.00  0.00    +0.000 C 
ATOM     56  C   UNL     1      51.275 -38.816  -7.471  0.00  0.00    +0.000 C 
ATOM     57  C   UNL     1      48.936 -39.420  -7.003  0.00  0.00    +0.000 C 
ENDBRANCH  18  54
BRANCH  22  58
ATOM     58  C   UNL     1      45.695 -38.253  -9.988  0.00  0.00    +0.000 C 
ATOM     59  O   UNL     1      46.357 -39.276 -10.173  0.00  0.00    +0.000 OA
ATOM     60  N   UNL     1      44.446 -38.263  -9.457  0.00  0.00    +0.000 N 
ATOM     61  H   UNL     1      43.944 -37.380  -9.369  0.00  0.00    +0.000 HD
BRANCH  60  62
ATOM     62  C   UNL     1      43.778 -39.516  -8.996  0.00  0.00    +0.000 C 
BRANCH  62  63
ATOM     63  C   UNL     1      43.891 -39.555  -7.561  0.00  0.00    +0.000 A 
ATOM     64  C   UNL     1      45.037 -40.063  -6.952  0.00  0.00    +0.000 A 
ATOM     65  C   UNL     1      45.180 -40.084  -5.555  0.00  0.00    +0.000 A 
ATOM     66  C   UNL     1      44.178 -39.597  -4.712  0.00  0.00    +0.000 A 
ATOM     67  C   UNL     1      43.027 -39.082  -5.318  0.00  0.00    +0.000 A 
ATOM     68  C   UNL     1      42.885 -39.068  -6.725  0.00  0.00    +0.000 A 
BRANCH  66  69
ATOM     69  C   UNL     1      44.338 -39.631  -3.304  0.00  0.00    +0.000 C 
ATOM     70  N   UNL     1      45.543 -39.879  -2.786  0.00  0.00    +0.000 NA
ATOM     71  N   UNL     1      43.295 -39.371  -2.511  0.00  0.00    +0.000 N 
ATOM     72  H   UNL     1      46.339 -40.042  -3.402  0.00  0.00    +0.000 HD
ATOM     73  H   UNL     1      43.415 -39.361  -1.498  0.00  0.00    +0.000 HD
ATOM     74  H   UNL     1      42.379 -39.183  -2.918  0.00  0.00    +0.000 HD
ENDBRANCH  66  69
ENDBRANCH  62  63
ENDBRANCH  60  62
ENDBRANCH  22  58
BRANCH  10  75
ATOM     75  C   UNL     1      54.737 -33.539  -3.203  0.00  0.00    +0.000 C 
BRANCH  75  76
ATOM     76  C   UNL     1      54.241 -33.404  -1.731  0.00  0.00    +0.000 C 
BRANCH  76  77
ATOM     77  C   UNL     1      54.595 -31.998  -1.230  0.00  0.00    +0.000 C 
BRANCH  77  78
ATOM     78  N   UNL     1      54.044 -31.691   0.112  0.00  0.00    +0.000 N 
ATOM     79  C   UNL     1      52.923 -30.956   0.317  0.00  0.00    +0.000 C 
ATOM     80  N   UNL     1      52.238 -30.507  -0.763  0.00  0.00    +0.000 NA
ATOM     81  N   UNL     1      52.497 -30.682   1.593  0.00  0.00    +0.000 N 
ATOM     82  H   UNL     1      54.537 -32.054   0.928  0.00  0.00    +0.000 HD
ATOM     83  H   UNL     1      52.569 -30.724  -1.703  0.00  0.00    +0.000 HD
ATOM     84  H   UNL     1      51.651 -30.131   1.741  0.00  0.00    +0.000 HD
ATOM     85  H   UNL     1      53.026 -31.029   2.393  0.00  0.00    +0.000 HD
ENDBRANCH  77  78
ENDBRANCH  76  77
ENDBRANCH  75  76
ENDBRANCH  10  75
BRANCH  14  86
ATOM     86  C   UNL     1      50.153 -33.720  -4.956  0.00  0.00    +0.000 C 
BRANCH  86  87
ATOM     87  C   UNL     1      50.461 -33.194  -3.529  0.00  0.00    +0.000 C 
BRANCH  87  88
ATOM     88  C   UNL     1      49.742 -34.067  -2.479  0.00  0.00    +0.000 C 
BRANCH  88  89
ATOM     89  N   UNL     1      49.967 -33.583  -1.096  0.00  0.00    +0.000 N 
ATOM     90  C   UNL     1      50.793 -34.177  -0.200  0.00  0.00    +0.000 C 
ATOM     91  N   UNL     1      50.904 -33.694   1.050  0.00  0.00    +0.000 N 
ATOM     92  N   UNL     1      51.508 -35.262  -0.544  0.00  0.00    +0.000 NA
ATOM     93  H   UNL     1      49.466 -32.746  -0.798  0.00  0.00    +0.000 HD
ATOM     94  H   UNL     1      51.523 -34.150   1.720  0.00  0.00    +0.000 HD
ATOM     95  H   UNL     1      50.369 -32.871   1.328  0.00  0.00    +0.000 HD
ATOM     96  H   UNL     1      51.432 -35.645  -1.486  0.00  0.00    +0.000 HD
ENDBRANCH  88  89
ENDBRANCH  87  88
ENDBRANCH  86  87
ENDBRANCH  14  86
TORSDOF 14
