REMARK  Name = 6s07_ligand
REMARK  65 active torsions:
REMARK  status: ('A' for Active; 'I' for Inactive)
REMARK    1  A    between atoms: C_1  and  C_3
REMARK    2  A    between atoms: C_4  and  N_6
REMARK    3  A    between atoms: N_10  and  CA_11
REMARK    4  A    between atoms: CA_11  and  C_12
REMARK    5  A    between atoms: CA_11  and  CB_14
REMARK    6  A    between atoms: N_15  and  CA_16
REMARK    7  A    between atoms: CA_16  and  C_17
REMARK    8  A    between atoms: CA_16  and  CB_19
REMARK    9  A    between atoms: CB_19  and  OG1_20
REMARK   10  A    between atoms: CB_19  and  CG2_21
REMARK   11  A    between atoms: N_22  and  CA_23
REMARK   12  A    between atoms: CA_23  and  C_24
REMARK   13  A    between atoms: CA_23  and  CB_26
REMARK   14  A    between atoms: CB_26  and  OG1_27
REMARK   15  A    between atoms: CB_26  and  CG2_28
REMARK   16  A    between atoms: CA_30  and  C_31
REMARK   17  A    between atoms: N_36  and  CA_37
REMARK   18  A    between atoms: CA_37  and  C_38
REMARK   19  A    between atoms: CA_37  and  CB_40
REMARK   20  A    between atoms: CB_40  and  CG_41
REMARK   21  A    between atoms: CG_41  and  CD1_42
REMARK   22  A    between atoms: CG_41  and  CD2_43
REMARK   23  A    between atoms: N_44  and  CA_45
REMARK   24  A    between atoms: CA_45  and  C_46
REMARK   25  A    between atoms: CA_45  and  CB_48
REMARK   26  A    between atoms: CB_48  and  SG_49
REMARK   27  A    between atoms: N_50  and  CA_51
REMARK   28  A    between atoms: CA_51  and  C_52
REMARK   29  A    between atoms: CA_55  and  C_56
REMARK   30  A    between atoms: N_61  and  CA_62
REMARK   31  A    between atoms: CA_62  and  C_63
REMARK   32  A    between atoms: CA_62  and  CB_65
REMARK   33  A    between atoms: CB_65  and  OG_66
REMARK   34  A    between atoms: N_67  and  CA_68
REMARK   35  A    between atoms: CA_68  and  C_69
REMARK   36  A    between atoms: CA_68  and  CB_71
REMARK   37  A    between atoms: CB_71  and  CG_72
REMARK   38  A    between atoms: CG_72  and  CD_73
REMARK   39  A    between atoms: CD_73  and  NE_74
REMARK   40  A    between atoms: N_78  and  CA_79
REMARK   41  A    between atoms: CA_79  and  C_80
REMARK   42  A    between atoms: CA_79  and  CB_82
REMARK   43  A    between atoms: N_83  and  CA_84
REMARK   44  A    between atoms: CA_84  and  C_85
REMARK   45  A    between atoms: CA_84  and  CB_87
REMARK   46  A    between atoms: CB_87  and  OG_88
REMARK   47  A    between atoms: N_89  and  CA_90
REMARK   48  A    between atoms: CA_90  and  C_91
REMARK   49  A    between atoms: CA_90  and  CB_93
REMARK   50  A    between atoms: CB_93  and  CG1_94
REMARK   51  A    between atoms: CB_93  and  CG2_95
REMARK   52  A    between atoms: CG1_94  and  CD1_96
REMARK   53  A    between atoms: N_97  and  CA_98
REMARK   54  A    between atoms: CA_98  and  C_99
REMARK   55  A    between atoms: CA_98  and  CB_101
REMARK   56  A    between atoms: CB_101  and  CG_102
REMARK   57  A    between atoms: CG_102  and  CD1_103
REMARK   58  A    between atoms: CG_102  and  CD2_104
REMARK   59  A    between atoms: N_105  and  CA_106
REMARK   60  A    between atoms: CA_106  and  C_107
REMARK   61  A    between atoms: CA_106  and  CB_109
REMARK   62  A    between atoms: CB_109  and  OG_110
REMARK   63  A    between atoms: N_111  and  CA_112
REMARK   64  A    between atoms: CA_112  and  C_113
REMARK   65  A    between atoms: C_113  and  O_114
REMARK                            x       y       z     vdW  Elec       q    Type
REMARK                         _______ _______ _______ _____ _____    ______ ____
ROOT
ATOM      1  C   PRO A   8     -14.294  -7.841 -21.150  0.00  0.00    +0.000 C 
ATOM      2  O   PRO A   8     -15.293  -7.514 -20.508  0.00  0.00    +0.000 OA
ATOM      3  N   SER A   9     -14.224  -7.709 -22.472  0.00  0.00    +0.000 N 
ATOM      4  H   SER A   9     -13.419  -8.082 -22.975  0.00  0.00    +0.000 HD
ENDROOT
BRANCH   1   8
ATOM      5  C   GLY A   7     -11.824  -6.467 -19.719  0.00  0.00    +0.000 C 
ATOM      6  O   GLY A   7     -11.511  -6.202 -20.882  0.00  0.00    +0.000 OA
ATOM      7  N   PRO A   8     -12.584  -7.526 -19.418  0.00  0.00    +0.000 N 
ATOM      8  CA  PRO A   8     -13.078  -8.447 -20.460  0.00  0.00    +0.000 C 
ATOM      9  CB  PRO A   8     -13.448  -9.704 -19.664  0.00  0.00    +0.000 C 
ATOM     10  CG  PRO A   8     -13.861  -9.158 -18.330  0.00  0.00    +0.000 C 
ATOM     11  CD  PRO A   8     -13.008  -7.944 -18.068  0.00  0.00    +0.000 C 
BRANCH   5  12
ATOM     12  CA  GLY A   7     -11.348  -5.595 -18.567  0.00  0.00    +0.000 C 
BRANCH  12  15
ATOM     13  C   CYS A   6      -9.684  -6.429 -17.011  0.00  0.00    +0.000 C 
ATOM     14  O   CYS A   6     -10.553  -6.756 -16.206  0.00  0.00    +0.000 OA
ATOM     15  N   GLY A   7      -9.981  -5.895 -18.190  0.00  0.00    +0.000 N 
ATOM     16  H   GLY A   7      -9.228  -5.691 -18.847  0.00  0.00    +0.000 HD
BRANCH  13  17
ATOM     17  CA  CYS A   6      -8.225  -6.668 -16.647  0.00  0.00    +0.000 C 
BRANCH  17  20
ATOM     18  C   LEU A   5      -6.774  -7.840 -18.231  0.00  0.00    +0.000 C 
ATOM     19  O   LEU A   5      -6.874  -8.917 -17.637  0.00  0.00    +0.000 OA
ATOM     20  N   CYS A   6      -7.331  -6.710 -17.796  0.00  0.00    +0.000 N 
ATOM     21  H   CYS A   6      -7.123  -5.840 -18.287  0.00  0.00    +0.000 HD
BRANCH  18  22
ATOM     22  CA  LEU A   5      -6.006  -7.764 -19.540  0.00  0.00    +0.000 C 
BRANCH  22  25
ATOM     23  C   PRO A   4      -3.605  -7.298 -19.440  0.00  0.00    +0.000 C 
ATOM     24  O   PRO A   4      -3.757  -6.091 -19.657  0.00  0.00    +0.000 OA
ATOM     25  N   LEU A   5      -4.621  -8.139 -19.303  0.00  0.00    +0.000 N 
ATOM     26  H   LEU A   5      -4.421  -9.097 -19.017  0.00  0.00    +0.000 HD
BRANCH  23  30
ATOM     27  C   THR A   3      -1.393  -7.118 -21.404  0.00  0.00    +0.000 C 
ATOM     28  O   THR A   3      -2.397  -7.572 -21.961  0.00  0.00    +0.000 OA
ATOM     29  N   PRO A   4      -1.201  -7.265 -20.098  0.00  0.00    +0.000 N 
ATOM     30  CA  PRO A   4      -2.222  -7.917 -19.271  0.00  0.00    +0.000 C 
ATOM     31  CB  PRO A   4      -1.677  -7.734 -17.849  0.00  0.00    +0.000 C 
ATOM     32  CG  PRO A   4      -0.187  -7.809 -18.055  0.00  0.00    +0.000 C 
ATOM     33  CD  PRO A   4       0.028  -7.003 -19.324  0.00  0.00    +0.000 C 
BRANCH  27  34
ATOM     34  CA  THR A   3      -0.346  -6.376 -22.225  0.00  0.00    +0.000 C 
BRANCH  34  37
ATOM     35  C   THR A   2       1.298  -7.555 -23.587  0.00  0.00    +0.000 C 
ATOM     36  O   THR A   2       2.254  -6.995 -23.040  0.00  0.00    +0.000 OA
ATOM     37  N   THR A   3       0.034  -7.185 -23.369  0.00  0.00    +0.000 N 
ATOM     38  H   THR A   3      -0.688  -7.480 -24.027  0.00  0.00    +0.000 HD
BRANCH  35  39
ATOM     39  CA  THR A   2       1.549  -8.688 -24.581  0.00  0.00    +0.000 C 
BRANCH  39  42
ATOM     40  C   ALA A   1       3.118 -10.486 -24.269  0.00  0.00    +0.000 C 
ATOM     41  O   ALA A   1       3.796  -9.993 -25.169  0.00  0.00    +0.000 OA
ATOM     42  N   THR A   2       1.974  -9.913 -23.902  0.00  0.00    +0.000 N 
ATOM     43  H   THR A   2       1.404 -10.320 -23.161  0.00  0.00    +0.000 HD
BRANCH  40  44
ATOM     44  CA  ALA A   1       3.641 -11.677 -23.466  0.00  0.00    +0.000 C 
ATOM     45  CB  ALA A   1       3.315 -12.980 -24.166  0.00  0.00    +0.000 C 
BRANCH  44  48
ATOM     46  C   UNK A   0       3.448 -10.660 -21.204  0.00  0.00    +0.000 C 
ATOM     47  O   UNK A   0       4.105  -9.755 -21.664  0.00  0.00    +0.000 OA
ATOM     48  N   ALA A   1       3.076 -11.689 -22.121  0.00  0.00    +0.000 N 
ATOM     49  H   ALA A   1       2.425 -12.422 -21.840  0.00  0.00    +0.000 HD
BRANCH  46  50
ATOM     50  C   UNK A   0       2.984 -10.710 -19.820  0.00  0.00    +0.000 A 
ATOM     51  C   UNK A   0       3.266  -9.678 -18.904  0.00  0.00    +0.000 A 
ATOM     52  C   UNK A   0       2.818  -9.809 -17.581  0.00  0.00    +0.000 A 
ATOM     53  C   UNK A   0       2.096 -10.914 -17.176  0.00  0.00    +0.000 A 
ATOM     54  C   UNK A   0       1.805 -11.913 -18.072  0.00  0.00    +0.000 A 
ATOM     55  C   UNK A   0       2.246 -11.819 -19.380  0.00  0.00    +0.000 A 
BRANCH  51  56
ATOM     56  N   UNK A   0       3.968  -8.551 -19.286  0.00  0.00    +0.000 N 
ATOM     57  H   UNK A   0       4.293  -8.454 -20.248  0.00  0.00    +0.000 HD
ATOM     58  H   UNK A   0       4.161  -7.816 -18.606  0.00  0.00    +0.000 HD
ENDBRANCH  51  56
ENDBRANCH  46  50
ENDBRANCH  44  48
ENDBRANCH  40  44
ENDBRANCH  39  42
BRANCH  39  59
ATOM     59  CB  THR A   2       0.339  -8.953 -25.479  0.00  0.00    +0.000 C 
ATOM     60  CG2 THR A   2       0.735  -9.825 -26.670  0.00  0.00    +0.000 C 
BRANCH  59  61
ATOM     61  OG1 THR A   2      -0.678  -9.619 -24.724  0.00  0.00    +0.000 OA
ATOM     62  HG1 THR A   2      -1.437  -9.785 -25.288  0.00  0.00    +0.000 HD
ENDBRANCH  59  61
ENDBRANCH  39  59
ENDBRANCH  35  39
ENDBRANCH  34  37
BRANCH  34  63
ATOM     63  CB  THR A   3      -0.917  -5.043 -22.715  0.00  0.00    +0.000 C 
ATOM     64  CG2 THR A   3      -1.259  -4.127 -21.544  0.00  0.00    +0.000 C 
BRANCH  63  65
ATOM     65  OG1 THR A   3       0.052  -4.407 -23.554  0.00  0.00    +0.000 OA
ATOM     66  HG1 THR A   3      -0.297  -3.569 -23.866  0.00  0.00    +0.000 HD
ENDBRANCH  63  65
ENDBRANCH  34  63
ENDBRANCH  27  34
ENDBRANCH  23  30
ENDBRANCH  22  25
BRANCH  22  67
ATOM     67  CB  LEU A   5      -6.619  -8.727 -20.556  0.00  0.00    +0.000 C 
BRANCH  67  68
ATOM     68  CG  LEU A   5      -8.047  -8.359 -20.956  0.00  0.00    +0.000 C 
ATOM     69  CD1 LEU A   5      -8.053  -7.129 -21.832  0.00  0.00    +0.000 C 
ATOM     70  CD2 LEU A   5      -8.724  -9.504 -21.662  0.00  0.00    +0.000 C 
ENDBRANCH  67  68
ENDBRANCH  22  67
ENDBRANCH  18  22
ENDBRANCH  17  20
BRANCH  17  71
ATOM     71  CB  CYS A   6      -7.765  -5.618 -15.620  0.00  0.00    +0.000 C 
BRANCH  71  72
ATOM     72  SG  CYS A   6      -6.146  -6.015 -14.914  0.00  0.00    +0.000 S 
ATOM     73  HG  CYS A   6      -5.804  -5.075 -14.037  0.00  0.00    +0.000 HD
ENDBRANCH  71  72
ENDBRANCH  17  71
ENDBRANCH  13  17
ENDBRANCH  12  15
ENDBRANCH   5  12
ENDBRANCH   1   8
BRANCH   3  74
ATOM     74  CA  SER A   9     -15.285  -7.038 -23.206  0.00  0.00    +0.000 C 
BRANCH  74  75
ATOM     75  C   SER A   9     -16.152  -8.030 -23.965  0.00  0.00    +0.000 C 
ATOM     76  O   SER A   9     -15.710  -9.105 -24.397  0.00  0.00    +0.000 OA
ATOM     77  N   ARG A  10     -17.421  -7.664 -24.125  0.00  0.00    +0.000 N 
ATOM     78  H   ARG A  10     -17.764  -6.797 -23.712  0.00  0.00    +0.000 HD
BRANCH  77  79
ATOM     79  CA  ARG A  10     -18.316  -8.518 -24.899  0.00  0.00    +0.000 C 
BRANCH  79  80
ATOM     80  C   ARG A  10     -17.841  -8.659 -26.335  0.00  0.00    +0.000 C 
ATOM     81  O   ARG A  10     -17.993  -9.725 -26.943  0.00  0.00    +0.000 OA
ATOM     82  N   ALA A  11     -17.263  -7.601 -26.893  0.00  0.00    +0.000 N 
ATOM     83  H   ALA A  11     -17.162  -6.742 -26.352  0.00  0.00    +0.000 HD
BRANCH  82  84
ATOM     84  CA  ALA A  11     -16.772  -7.645 -28.262  0.00  0.00    +0.000 C 
ATOM     85  CB  ALA A  11     -16.262  -6.263 -28.672  0.00  0.00    +0.000 C 
BRANCH  84  86
ATOM     86  C   ALA A  11     -15.660  -8.667 -28.416  0.00  0.00    +0.000 C 
ATOM     87  O   ALA A  11     -15.491  -9.242 -29.502  0.00  0.00    +0.000 OA
ATOM     88  N   SER A  12     -14.881  -8.895 -27.354  0.00  0.00    +0.000 N 
ATOM     89  H   SER A  12     -15.153  -8.529 -26.442  0.00  0.00    +0.000 HD
BRANCH  88  90
ATOM     90  CA  SER A  12     -13.649  -9.660 -27.485  0.00  0.00    +0.000 C 
BRANCH  90  91
ATOM     91  C   SER A  12     -13.887 -11.131 -27.771  0.00  0.00    +0.000 C 
ATOM     92  O   SER A  12     -12.981 -11.792 -28.288  0.00  0.00    +0.000 OA
ATOM     93  N   ILE A  13     -15.072 -11.661 -27.447  0.00  0.00    +0.000 N 
ATOM     94  H   ILE A  13     -15.805 -11.059 -27.073  0.00  0.00    +0.000 HD
BRANCH  93  95
ATOM     95  CA  ILE A  13     -15.333 -13.089 -27.620  0.00  0.00    +0.000 C 
BRANCH  95  96
ATOM     96  C   ILE A  13     -15.902 -13.426 -28.987  0.00  0.00    +0.000 C 
ATOM     97  O   ILE A  13     -16.093 -14.616 -29.290  0.00  0.00    +0.000 OA
ATOM     98  N   LEU A  14     -16.190 -12.428 -29.817  0.00  0.00    +0.000 N 
ATOM     99  H   LEU A  14     -16.007 -11.470 -29.520  0.00  0.00    +0.000 HD
BRANCH  98 100
ATOM    100  CA  LEU A  14     -16.759 -12.661 -31.137  0.00  0.00    +0.000 C 
BRANCH 100 101
ATOM    101  C   LEU A  14     -15.633 -12.963 -32.115  0.00  0.00    +0.000 C 
ATOM    102  O   LEU A  14     -14.747 -12.127 -32.330  0.00  0.00    +0.000 OA
ATOM    103  N   SER A  15     -15.689 -14.135 -32.740  0.00  0.00    +0.000 N 
ATOM    104  H   SER A  15     -16.500 -14.740 -32.612  0.00  0.00    +0.000 HD
BRANCH 103 105
ATOM    105  CA  SER A  15     -14.599 -14.560 -33.606  0.00  0.00    +0.000 C 
BRANCH 105 106
ATOM    106  C   SER A  15     -15.019 -15.676 -34.557  0.00  0.00    +0.000 C 
ATOM    107  O   SER A  15     -14.630 -16.834 -34.367  0.00  0.00    +0.000 OA
ATOM    108  N   GLY A  16     -15.801 -15.348 -35.582  0.00  0.00    +0.000 N 
ATOM    109  H   GLY A  16     -16.152 -14.393 -35.662  0.00  0.00    +0.000 HD
BRANCH 108 110
ATOM    110  CA  GLY A  16     -16.163 -16.334 -36.591  0.00  0.00    +0.000 C 
BRANCH 110 111
ATOM    111  C   GLY A  16     -17.594 -16.839 -36.564  0.00  0.00    +0.000 C 
ATOM    112  OXT GLY A  16     -18.535 -16.120 -36.922  0.00  0.00    +0.000 OA
BRANCH 111 113
ATOM    113  O   GLY A  16     -17.863 -17.985 -36.183  0.00  0.00    +0.000 OA
ATOM    114  H   GLY A  16     -17.053 -18.437 -35.935  0.00  0.00    +0.000 HD
ENDBRANCH 111 113
ENDBRANCH 110 111
ENDBRANCH 108 110
ENDBRANCH 105 106
BRANCH 105 115
ATOM    115  CB  SER A  15     -13.418 -15.022 -32.749  0.00  0.00    +0.000 C 
BRANCH 115 116
ATOM    116  OG  SER A  15     -12.368 -15.526 -33.554  0.00  0.00    +0.000 OA
ATOM    117  H   SER A  15     -11.642 -15.808 -32.992  0.00  0.00    +0.000 HD
ENDBRANCH 115 116
ENDBRANCH 105 115
ENDBRANCH 103 105
ENDBRANCH 100 101
BRANCH 100 118
ATOM    118  CB  LEU A  14     -17.506 -11.415 -31.592  0.00  0.00    +0.000 C 
BRANCH 118 119
ATOM    119  CG  LEU A  14     -18.625 -10.908 -30.691  0.00  0.00    +0.000 C 
ATOM    120  CD1 LEU A  14     -19.114  -9.569 -31.212  0.00  0.00    +0.000 C 
ATOM    121  CD2 LEU A  14     -19.766 -11.907 -30.626  0.00  0.00    +0.000 C 
ENDBRANCH 118 119
ENDBRANCH 100 118
ENDBRANCH  98 100
ENDBRANCH  95  96
BRANCH  95 122
ATOM    122  CB  ILE A  13     -16.283 -13.635 -26.538  0.00  0.00    +0.000 C 
ATOM    123  CG2 ILE A  13     -15.708 -13.380 -25.162  0.00  0.00    +0.000 C 
BRANCH 122 124
ATOM    124  CG1 ILE A  13     -17.671 -13.011 -26.682  0.00  0.00    +0.000 C 
ATOM    125  CD1 ILE A  13     -18.773 -13.763 -25.975  0.00  0.00    +0.000 C 
ENDBRANCH 122 124
ENDBRANCH  95 122
ENDBRANCH  93  95
ENDBRANCH  90  91
BRANCH  90 126
ATOM    126  CB  SER A  12     -12.800  -9.528 -26.219  0.00  0.00    +0.000 C 
BRANCH 126 127
ATOM    127  OG  SER A  12     -13.342 -10.265 -25.144  0.00  0.00    +0.000 OA
ATOM    128  H   SER A  12     -12.784 -10.158 -24.370  0.00  0.00    +0.000 HD
ENDBRANCH 126 127
ENDBRANCH  90 126
ENDBRANCH  88  90
ENDBRANCH  84  86
ENDBRANCH  82  84
ENDBRANCH  79  80
BRANCH  79 129
ATOM    129  CB  ARG A  10     -19.745  -7.972 -24.861  0.00  0.00    +0.000 C 
BRANCH 129 130
ATOM    130  CG  ARG A  10     -20.370  -8.006 -23.489  0.00  0.00    +0.000 C 
BRANCH 130 131
ATOM    131  CD  ARG A  10     -21.802  -7.468 -23.477  0.00  0.00    +0.000 C 
BRANCH 131 132
ATOM    132  NE  ARG A  10     -22.351  -7.443 -22.130  0.00  0.00    +0.000 N 
ATOM    133  CZ  ARG A  10     -22.822  -8.509 -21.488  0.00  0.00    +0.000 C 
ATOM    134  NH1 ARG A  10     -22.832  -9.678 -22.085  0.00  0.00    +0.000 NA
ATOM    135  NH2 ARG A  10     -23.301  -8.411 -20.260  0.00  0.00    +0.000 N 
ATOM    136  HE  ARG A  10     -22.377  -6.546 -21.644  0.00  0.00    +0.000 HD
ATOM    137  HH1 ARG A  10     -22.479  -9.767 -23.038  0.00  0.00    +0.000 HD
ATOM    138 HH21 ARG A  10     -23.671  -9.237 -19.790  0.00  0.00    +0.000 HD
ATOM    139 HH22 ARG A  10     -23.300  -7.510 -19.783  0.00  0.00    +0.000 HD
ENDBRANCH 131 132
ENDBRANCH 130 131
ENDBRANCH 129 130
ENDBRANCH  79 129
ENDBRANCH  77  79
ENDBRANCH  74  75
BRANCH  74 140
ATOM    140  CB  SER A   9     -14.732  -6.022 -24.198  0.00  0.00    +0.000 C 
BRANCH 140 141
ATOM    141  OG  SER A   9     -14.295  -6.707 -25.356  0.00  0.00    +0.000 OA
ATOM    142  H   SER A   9     -13.945  -6.074 -25.988  0.00  0.00    +0.000 HD
ENDBRANCH 140 141
ENDBRANCH  74 140
ENDBRANCH   3  74
TORSDOF 55
