REMARK  Name = 6oxt_ligand
REMARK  19 active torsions:
REMARK  status: ('A' for Active; 'I' for Inactive)
REMARK    1  A    between atoms: C_1  and  C_2
REMARK    2  A    between atoms: C_1  and  C_16
REMARK    3  A    between atoms: C_1  and  O_35
REMARK    4  A    between atoms: C_2  and  C_8
REMARK    5  A    between atoms: C_2  and  N_32
REMARK    6  A    between atoms: C_3  and  O_37
REMARK    7  A    between atoms: C_4  and  O_37
REMARK    8  A    between atoms: C_8  and  C_19
REMARK    9  A    between atoms: C_9  and  C_30
REMARK   10  A    between atoms: C_12  and  S_41
REMARK   11  A    between atoms: C_15  and  C_27
REMARK   12  A    between atoms: C_15  and  N_31
REMARK   13  A    between atoms: C_16  and  N_31
REMARK   14  A    between atoms: C_25  and  C_30
REMARK   15  A    between atoms: C_26  and  C_28
REMARK   16  A    between atoms: C_27  and  C_28
REMARK   17  A    between atoms: C_27  and  C_29
REMARK   18  A    between atoms: C_30  and  O_40
REMARK   19  A    between atoms: N_31  and  S_41
REMARK                            x       y       z     vdW  Elec       q    Type
REMARK                         _______ _______ _______ _____ _____    ______ ____
ROOT
ATOM      1  C   UNL     1      71.251  57.654  14.932  0.00  0.00    +0.000 C 
ENDROOT
BRANCH   1   2
ATOM      2  O   UNL     1      71.101  58.798  14.176  0.00  0.00    +0.000 OA
ATOM      3  H   UNL     1      71.654  59.494  14.538  0.00  0.00    +0.000 HD
ENDBRANCH   1   2
BRANCH   1   4
ATOM      4  C   UNL     1      70.368  56.535  14.358  0.00  0.00    +0.000 C 
BRANCH   4   5
ATOM      5  N   UNL     1      70.698  55.207  15.092  0.00  0.00    +0.000 NA
BRANCH   5   8
ATOM      6  O   UNL     1      70.071  53.868  17.267  0.00  0.00    +0.000 OA
ATOM      7  O   UNL     1      68.655  55.637  16.744  0.00  0.00    +0.000 OA
ATOM      8  S   UNL     1      69.485  54.574  16.145  0.00  0.00    +0.000 S 
BRANCH   8  12
ATOM      9  C   UNL     1      66.849  51.595  13.445  0.00  0.00    +0.000 C 
ATOM     10  C   UNL     1      67.974  51.020  14.305  0.00  0.00    +0.000 C 
ATOM     11  C   UNL     1      68.799  51.955  15.161  0.00  0.00    +0.000 C 
ATOM     12  C   UNL     1      68.488  53.473  15.133  0.00  0.00    +0.000 C 
ATOM     13  C   UNL     1      67.379  54.059  14.265  0.00  0.00    +0.000 C 
ATOM     14  C   UNL     1      66.552  53.114  13.409  0.00  0.00    +0.000 C 
BRANCH   9  16
ATOM     15  C   UNL     1      66.377  49.208  12.803  0.00  0.00    +0.000 C 
ATOM     16  C   UNL     1      66.024  50.679  12.565  0.00  0.00    +0.000 C 
BRANCH  16  17
ATOM     17  O   UNL     1      66.379  51.029  11.273  0.00  0.00    +0.000 OA
ATOM     18  H   UNL     1      65.892  50.485  10.650  0.00  0.00    +0.000 HD
ENDBRANCH  16  17
ENDBRANCH   9  16
ENDBRANCH   8  12
ENDBRANCH   5   8
BRANCH   5  19
ATOM     19  C   UNL     1      71.522  54.157  14.390  0.00  0.00    +0.000 C 
BRANCH  19  20
ATOM     20  C   UNL     1      72.987  54.563  14.383  0.00  0.00    +0.000 C 
ATOM     21  C   UNL     1      73.564  54.481  15.778  0.00  0.00    +0.000 C 
BRANCH  20  23
ATOM     22  C   UNL     1      73.435  52.170  13.658  0.00  0.00    +0.000 C 
ATOM     23  C   UNL     1      73.761  53.635  13.399  0.00  0.00    +0.000 C 
ENDBRANCH  20  23
ENDBRANCH  19  20
ENDBRANCH   5  19
ENDBRANCH   4   5
ENDBRANCH   1   4
BRANCH   1  24
ATOM     24  C   UNL     1      70.858  57.958  16.378  0.00  0.00    +0.000 C 
BRANCH  24  26
ATOM     25  C   UNL     1      72.808  58.572  17.943  0.00  0.00    +0.000 C 
ATOM     26  N   UNL     1      71.820  58.922  16.904  0.00  0.00    +0.000 N 
ATOM     27  O   UNL     1      72.835  57.517  18.483  0.00  0.00    +0.000 OA
ATOM     28  H   UNL     1      71.809  59.874  16.539  0.00  0.00    +0.000 HD
BRANCH  25  29
ATOM     29  O   UNL     1      73.711  59.614  18.238  0.00  0.00    +0.000 OA
BRANCH  29  30
ATOM     30  C   UNL     1      74.480  59.563  19.445  0.00  0.00    +0.000 C 
ATOM     31  C   UNL     1      75.945  60.190  19.033  0.00  0.00    +0.000 C 
ATOM     32  C   UNL     1      74.633  61.816  19.958  0.00  0.00    +0.000 C 
ATOM     33  C   UNL     1      72.304  61.666  19.655  0.00  0.00    +0.000 C 
ATOM     34  C   UNL     1      74.042  60.402  20.372  0.00  0.00    +0.000 C 
ATOM     35  C   UNL     1      72.556  60.610  20.397  0.00  0.00    +0.000 C 
ATOM     36  O   UNL     1      75.690  61.490  18.863  0.00  0.00    +0.000 OA
ATOM     37  O   UNL     1      73.694  62.501  19.487  0.00  0.00    +0.000 OA
ENDBRANCH  29  30
ENDBRANCH  25  29
ENDBRANCH  24  26
BRANCH  24  38
ATOM     38  C   UNL     1      69.486  58.628  16.445  0.00  0.00    +0.000 C 
BRANCH  38  39
ATOM     39  C   UNL     1      69.270  59.102  17.901  0.00  0.00    +0.000 A 
ATOM     40  C   UNL     1      68.973  58.063  18.987  0.00  0.00    +0.000 A 
ATOM     41  C   UNL     1      68.762  58.514  20.437  0.00  0.00    +0.000 A 
ATOM     42  C   UNL     1      68.849  59.982  20.788  0.00  0.00    +0.000 A 
ATOM     43  C   UNL     1      69.150  61.014  19.702  0.00  0.00    +0.000 A 
ATOM     44  C   UNL     1      69.363  60.560  18.247  0.00  0.00    +0.000 A 
ENDBRANCH  38  39
ENDBRANCH  24  38
ENDBRANCH   1  24
TORSDOF 16
