REMARK  Name = 6q38_ligand
REMARK  35 active torsions:
REMARK  status: ('A' for Active; 'I' for Inactive)
REMARK    1  A    between atoms: C_1  and  C_3
REMARK    2  A    between atoms: C_1  and  N_23
REMARK    3  A    between atoms: C_6  and  N_16
REMARK    4  A    between atoms: C_7  and  C_44
REMARK    5  A    between atoms: C_17  and  C_24
REMARK    6  A    between atoms: O_18  and  C_44
REMARK    7  A    between atoms: N_30  and  C_40
REMARK    8  A    between atoms: N_31  and  C_42
REMARK    9  A    between atoms: C_38  and  C_39
REMARK   10  A    between atoms: C_40  and  C_41
REMARK   11  A    between atoms: C_42  and  C_43
REMARK   12  A    between atoms: C_47  and  C_50
REMARK   13  A    between atoms: C_50  and  C_51
REMARK   14  A    between atoms: C_51  and  C_52
REMARK   15  A    between atoms: C_52  and  N_53
REMARK   16  A    between atoms: C_58  and  C_61
REMARK   17  A    between atoms: C_61  and  C_62
REMARK   18  A    between atoms: C_62  and  C_63
REMARK   19  A    between atoms: C_62  and  C_64
REMARK   20  A    between atoms: C_66  and  C_69
REMARK   21  A    between atoms: C_69  and  C_70
REMARK   22  A    between atoms: C_75  and  O_76
REMARK   23  A    between atoms: C_82  and  C_85
REMARK   24  A    between atoms: C_85  and  C_86
REMARK   25  A    between atoms: C_93  and  C_96
REMARK   26  A    between atoms: C_96  and  C_97
REMARK   27  A    between atoms: C_97  and  C_98
REMARK   28  A    between atoms: C_98  and  C_99
REMARK   29  A    between atoms: C_99  and  N_100
REMARK   30  A    between atoms: C_102  and  C_105
REMARK   31  A    between atoms: C_105  and  C_106
REMARK   32  A    between atoms: C_105  and  C_107
REMARK   33  A    between atoms: C_106  and  C_108
REMARK   34  A    between atoms: C_110  and  C_113
REMARK   35  A    between atoms: C_113  and  C_114
REMARK                            x       y       z     vdW  Elec       q    Type
REMARK                         _______ _______ _______ _____ _____    ______ ____
ROOT
ATOM      1  N   UNL     1      27.323  65.428  13.082  0.00  0.00    +0.000 N 
ATOM      2  C   UNL     1      26.478  66.562  12.712  0.00  0.00    +0.000 C 
ATOM      3  C   UNL     1      25.301  66.050  11.877  0.00  0.00    +0.000 C 
ATOM      4  C   UNL     1      30.427  61.044  15.542  0.00  0.00    +0.000 A 
ATOM      5  C   UNL     1      30.257  61.262  16.909  0.00  0.00    +0.000 A 
ATOM      6  C   UNL     1      29.445  62.301  17.358  0.00  0.00    +0.000 A 
ATOM      7  C   UNL     1      28.791  63.115  16.435  0.00  0.00    +0.000 A 
ATOM      8  N   UNL     1      28.533  63.699  12.752  0.00  0.00    +0.000 NA
ATOM      9  C   UNL     1      29.782  61.872  14.625  0.00  0.00    +0.000 A 
ATOM     10  C   UNL     1      28.968  62.912  15.068  0.00  0.00    +0.000 A 
ATOM     11  C   UNL     1      28.348  63.830  14.098  0.00  0.00    +0.000 A 
ATOM     12  O   UNL     1      24.895  63.853  12.688  0.00  0.00    +0.000 OA
ATOM     13  C   UNL     1      27.571  64.938  14.307  0.00  0.00    +0.000 A 
ATOM     14  N   UNL     1      27.916  64.679  12.135  0.00  0.00    +0.000 NA
ATOM     15  N   UNL     1      29.366  62.544  20.955  0.00  0.00    +0.000 N 
ATOM     16  N   UNL     1      27.154  61.670  22.477  0.00  0.00    +0.000 N 
ATOM     17  N   UNL     1      28.698  63.653  20.594  0.00  0.00    +0.000 NA
ATOM     18  N   UNL     1      28.660  63.668  19.282  0.00  0.00    +0.000 NA
ATOM     19  C   UNL     1      29.310  62.568  18.803  0.00  0.00    +0.000 A 
ATOM     20  C   UNL     1      29.763  61.849  19.876  0.00  0.00    +0.000 A 
ATOM     21  C   UNL     1      29.593  62.242  22.365  0.00  0.00    +0.000 C 
ATOM     22  C   UNL     1      28.508  61.347  22.973  0.00  0.00    +0.000 C 
ATOM     23  C   UNL     1      24.456  64.970  12.615  0.00  0.00    +0.000 C 
ATOM     24  N   UNL     1      23.128  65.226  12.667  0.00  0.00    +0.000 N 
ATOM     25  C   UNL     1      21.869  64.494  12.784  0.00  0.00    +0.000 C 
ATOM     26  C   UNL     1      21.737  63.388  11.740  0.00  0.00    +0.000 C 
ATOM     27  O   UNL     1      21.922  63.644  10.548  0.00  0.00    +0.000 OA
ATOM     28  N   UNL     1      21.422  62.159  12.190  0.00  0.00    +0.000 N 
ATOM     29  C   UNL     1      21.207  61.014  11.310  0.00  0.00    +0.000 C 
ATOM     30  C   UNL     1      19.740  60.587  11.417  0.00  0.00    +0.000 C 
ATOM     31  O   UNL     1      19.306  60.116  12.475  0.00  0.00    +0.000 OA
ATOM     32  N   UNL     1      18.977  60.806  10.319  0.00  0.00    +0.000 N 
ATOM     33  C   UNL     1      17.537  60.559  10.183  0.00  0.00    +0.000 C 
ATOM     34  C   UNL     1      16.721  61.374  11.206  0.00  0.00    +0.000 C 
ATOM     35  O   UNL     1      15.693  60.899  11.702  0.00  0.00    +0.000 OA
ATOM     36  N   UNL     1      17.205  62.585  11.503  0.00  0.00    +0.000 N 
ATOM     37  C   UNL     1      16.589  63.512  12.447  0.00  0.00    +0.000 C 
ATOM     38  C   UNL     1      17.115  63.434  13.868  0.00  0.00    +0.000 C 
ATOM     39  O   UNL     1      16.877  64.352  14.661  0.00  0.00    +0.000 OA
ATOM     40  N   UNL     1      17.824  62.333  14.209  0.00  0.00    +0.000 N 
ATOM     41  C   UNL     1      18.378  62.092  15.545  0.00  0.00    +0.000 C 
ATOM     42  C   UNL     1      19.758  62.675  15.704  0.00  0.00    +0.000 C 
ATOM     43  O   UNL     1      20.634  62.422  14.870  0.00  0.00    +0.000 OA
ATOM     44  N   UNL     1      19.988  63.367  16.829  0.00  0.00    +0.000 N 
ATOM     45  C   UNL     1      21.309  63.879  17.184  0.00  0.00    +0.000 C 
ATOM     46  C   UNL     1      22.158  62.663  17.595  0.00  0.00    +0.000 C 
ATOM     47  O   UNL     1      21.609  61.629  17.993  0.00  0.00    +0.000 OA
ATOM     48  N   UNL     1      23.479  62.769  17.462  0.00  0.00    +0.000 N 
ATOM     49  C   UNL     1      24.402  61.695  17.835  0.00  0.00    +0.000 C 
ATOM     50  C   UNL     1      24.893  61.948  19.257  0.00  0.00    +0.000 C 
ATOM     51  O   UNL     1      25.313  63.062  19.577  0.00  0.00    +0.000 OA
ATOM     52  N   UNL     1      24.798  60.926  20.099  0.00  0.00    +0.000 N 
ATOM     53  C   UNL     1      25.180  61.025  21.528  0.00  0.00    +0.000 C 
ATOM     54  C   UNL     1      26.691  60.829  21.669  0.00  0.00    +0.000 C 
ATOM     55  O   UNL     1      27.158  59.819  21.137  0.00  0.00    +0.000 OA
ATOM     56  O   UNL     1      27.293  61.700  22.301  0.00  0.00    +0.000 OA
ATOM     57  H   UNL     1      22.954  66.229  12.606  0.00  0.00    +0.000 HD
ATOM     58  H   UNL     1      21.329  62.021  13.196  0.00  0.00    +0.000 HD
ATOM     59  H   UNL     1      19.454  61.183   9.500  0.00  0.00    +0.000 HD
ATOM     60  H   UNL     1      18.063  62.881  11.038  0.00  0.00    +0.000 HD
ATOM     61  H   UNL     1      17.983  61.626  13.491  0.00  0.00    +0.000 HD
ATOM     62  H   UNL     1      19.209  63.543  17.463  0.00  0.00    +0.000 HD
ATOM     63  H   UNL     1      23.864  63.635  17.084  0.00  0.00    +0.000 HD
ATOM     64  H   UNL     1      24.447  60.035  19.748  0.00  0.00    +0.000 HD
ENDROOT
BRANCH  22  67
ATOM     65  O   UNL     1      28.731  62.509  25.093  0.00  0.00    +0.000 OA
ATOM     66  N   UNL     1      28.691  60.248  25.160  0.00  0.00    +0.000 N 
ATOM     67  C   UNL     1      28.637  61.421  24.525  0.00  0.00    +0.000 C 
ATOM     68  H   UNL     1      28.383  59.410  24.667  0.00  0.00    +0.000 HD
BRANCH  66  69
ATOM     69  C   UNL     1      29.169  60.119  26.520  0.00  0.00    +0.000 C 
BRANCH  69  72
ATOM     70  O   UNL     1      27.691  61.640  27.634  0.00  0.00    +0.000 OA
ATOM     71  N   UNL     1      27.957  59.586  28.535  0.00  0.00    +0.000 N 
ATOM     72  C   UNL     1      28.183  60.513  27.604  0.00  0.00    +0.000 C 
ATOM     73  H   UNL     1      27.990  58.601  28.271  0.00  0.00    +0.000 HD
BRANCH  71  74
ATOM     74  C   UNL     1      27.666  59.936  29.909  0.00  0.00    +0.000 C 
BRANCH  74  77
ATOM     75  O   UNL     1      29.239  61.520  30.747  0.00  0.00    +0.000 OA
ATOM     76  N   UNL     1      29.614  59.354  31.230  0.00  0.00    +0.000 N 
ATOM     77  C   UNL     1      28.908  60.332  30.682  0.00  0.00    +0.000 C 
ATOM     78  H   UNL     1      30.475  59.567  31.734  0.00  0.00    +0.000 HD
ATOM     79  H   UNL     1      29.297  58.388  31.148  0.00  0.00    +0.000 HD
ENDBRANCH  74  77
ENDBRANCH  71  74
ENDBRANCH  69  72
ENDBRANCH  66  69
ENDBRANCH  22  67
BRANCH   3  81
ATOM     80  C   UNL     1      24.314  67.379  10.068  0.00  0.00    +0.000 C 
ATOM     81  N   UNL     1      24.472  67.147  11.376  0.00  0.00    +0.000 N 
ATOM     82  O   UNL     1      25.047  66.889   9.210  0.00  0.00    +0.000 OA
ATOM     83  H   UNL     1      24.000  67.754  12.046  0.00  0.00    +0.000 HD
BRANCH  80  84
ATOM     84  C   UNL     1      23.159  68.281   9.670  0.00  0.00    +0.000 C 
BRANCH  84  86
ATOM     85  C   UNL     1      21.529  69.690  10.798  0.00  0.00    +0.000 C 
ATOM     86  N   UNL     1      22.108  68.495  10.645  0.00  0.00    +0.000 N 
ATOM     87  C   UNL     1      20.455  69.774  11.840  0.00  0.00    +0.000 C 
ATOM     88  O   UNL     1      21.861  70.668  10.128  0.00  0.00    +0.000 OA
ATOM     89  H   UNL     1      21.803  67.716  11.228  0.00  0.00    +0.000 HD
ENDBRANCH  84  86
ENDBRANCH  80  84
ENDBRANCH   3  81
BRANCH   4  91
ATOM     90  O   UNL     1      31.479  59.723  13.859  0.00  0.00    +0.000 OA
ATOM     91  C   UNL     1      31.272  59.911  15.056  0.00  0.00    +0.000 C 
BRANCH  91  92
ATOM     92  O   UNL     1      31.784  59.156  15.993  0.00  0.00    +0.000 OA
ATOM     93  H   UNL     1      31.498  59.475  16.852  0.00  0.00    +0.000 HD
ENDBRANCH  91  92
ENDBRANCH   4  91
BRANCH  49  94
ATOM     94  C   UNL     1      25.558  61.488  16.805  0.00  0.00    +0.000 C 
ATOM     95  C   UNL     1      26.414  60.255  17.135  0.00  0.00    +0.000 C 
BRANCH  94  96
ATOM     96  C   UNL     1      25.052  61.457  15.332  0.00  0.00    +0.000 C 
ATOM     97  C   UNL     1      24.023  60.335  14.950  0.00  0.00    +0.000 C 
ENDBRANCH  94  96
ENDBRANCH  49  94
BRANCH  33  98
ATOM     98  C   UNL     1      17.192  59.057  10.236  0.00  0.00    +0.000 C 
BRANCH  98  99
ATOM     99  C   UNL     1      17.637  58.258   9.031  0.00  0.00    +0.000 A 
ATOM    100  C   UNL     1      17.016  58.418   7.795  0.00  0.00    +0.000 A 
ATOM    101  C   UNL     1      18.613  57.271   9.148  0.00  0.00    +0.000 A 
ATOM    102  C   UNL     1      17.405  57.666   6.687  0.00  0.00    +0.000 A 
ATOM    103  C   UNL     1      19.001  56.503   8.051  0.00  0.00    +0.000 A 
ATOM    104  C   UNL     1      18.401  56.709   6.819  0.00  0.00    +0.000 A 
BRANCH 104 105
ATOM    105  O   UNL     1      18.784  55.956   5.732  0.00  0.00    +0.000 OA
ATOM    106  H   UNL     1      19.478  55.347   5.995  0.00  0.00    +0.000 HD
ENDBRANCH 104 105
ENDBRANCH  98  99
ENDBRANCH  33  98
BRANCH  29 107
ATOM    107  C   UNL     1      22.179  59.865  11.631  0.00  0.00    +0.000 C 
BRANCH 107 108
ATOM    108  C   UNL     1      22.035  58.555  10.827  0.00  0.00    +0.000 C 
ATOM    109  C   UNL     1      22.141  58.787   9.314  0.00  0.00    +0.000 C 
ATOM    110  C   UNL     1      23.070  57.551  11.262  0.00  0.00    +0.000 C 
ENDBRANCH 107 108
ENDBRANCH  29 107
BRANCH  41 111
ATOM    111  C   UNL     1      18.487  60.583  15.838  0.00  0.00    +0.000 C 
BRANCH 111 112
ATOM    112  C   UNL     1      17.203  59.790  15.905  0.00  0.00    +0.000 A 
ATOM    113  C   UNL     1      16.461  59.734  17.079  0.00  0.00    +0.000 A 
ATOM    114  C   UNL     1      16.786  59.022  14.825  0.00  0.00    +0.000 A 
ATOM    115  C   UNL     1      15.299  58.959  17.154  0.00  0.00    +0.000 A 
ATOM    116  C   UNL     1      15.622  58.253  14.902  0.00  0.00    +0.000 A 
ATOM    117  C   UNL     1      14.892  58.230  16.064  0.00  0.00    +0.000 A 
ENDBRANCH 111 112
ENDBRANCH  41 111
BRANCH  45 118
ATOM    118  C   UNL     1      21.209  64.877  18.357  0.00  0.00    +0.000 C 
BRANCH 118 119
ATOM    119  C   UNL     1      20.623  66.245  18.010  0.00  0.00    +0.000 C 
BRANCH 119 120
ATOM    120  C   UNL     1      20.091  66.940  19.265  0.00  0.00    +0.000 C 
BRANCH 120 121
ATOM    121  C   UNL     1      20.140  68.446  19.186  0.00  0.00    +0.000 C 
BRANCH 121 122
ATOM    122  N   UNL     1      19.519  69.080  20.379  0.00  0.00    +0.000 N 
ATOM    123  H   UNL     1      19.571  70.095  20.289  0.00  0.00    +0.000 HD
ATOM    124  H   UNL     1      18.542  68.793  20.445  0.00  0.00    +0.000 HD
ATOM    125  H   UNL     1      20.019  68.786  21.218  0.00  0.00    +0.000 HD
ENDBRANCH 121 122
ENDBRANCH 120 121
ENDBRANCH 119 120
ENDBRANCH 118 119
ENDBRANCH  45 118
BRANCH  25 126
ATOM    126  C   UNL     1      20.659  65.443  12.730  0.00  0.00    +0.000 C 
BRANCH 126 127
ATOM    127  C   UNL     1      20.452  66.251  14.002  0.00  0.00    +0.000 C 
BRANCH 127 128
ATOM    128  C   UNL     1      19.108  66.940  13.983  0.00  0.00    +0.000 C 
BRANCH 128 129
ATOM    129  N   UNL     1      19.094  68.156  14.799  0.00  0.00    +0.000 N 
ATOM    130  C   UNL     1      18.324  68.335  15.867  0.00  0.00    +0.000 C 
ATOM    131  N   UNL     1      18.367  69.478  16.537  0.00  0.00    +0.000 NA
ATOM    132  N   UNL     1      17.494  67.378  16.265  0.00  0.00    +0.000 N 
ATOM    133  H   UNL     1      19.717  68.917  14.529  0.00  0.00    +0.000 HD
ATOM    134  H   UNL     1      18.993  70.224  16.233  0.00  0.00    +0.000 HD
ATOM    135  H   UNL     1      16.898  67.526  17.079  0.00  0.00    +0.000 HD
ATOM    136  H   UNL     1      17.453  66.495  15.757  0.00  0.00    +0.000 HD
ENDBRANCH 128 129
ENDBRANCH 127 128
ENDBRANCH 126 127
ENDBRANCH  25 126
BRANCH  53 137
ATOM    137  C   UNL     1      24.432  59.956  22.325  0.00  0.00    +0.000 C 
BRANCH 137 138
ATOM    138  C   UNL     1      24.358  60.262  23.772  0.00  0.00    +0.000 C 
ATOM    139  N   UNL     1      23.691  61.355  24.247  0.00  0.00    +0.000 NA
ATOM    140  C   UNL     1      24.869  59.632  24.840  0.00  0.00    +0.000 C 
ATOM    141  C   UNL     1      23.789  61.385  25.554  0.00  0.00    +0.000 C 
ATOM    142  N   UNL     1      24.511  60.345  25.938  0.00  0.00    +0.000 NA
ENDBRANCH 137 138
ENDBRANCH  53 137
TORSDOF 30
