REMARK  Name = 6jam_ligand
REMARK  12 active torsions:
REMARK  status: ('A' for Active; 'I' for Inactive)
REMARK    1  A    between atoms: C_1  and  O_7
REMARK    2  A    between atoms: C_2  and  O_8
REMARK    3  A    between atoms: C_3  and  O_9
REMARK    4  A    between atoms: C_4  and  O_10
REMARK    5  A    between atoms: C_5  and  C_6
REMARK    6  A    between atoms: C_6  and  O_12
REMARK    7  A    between atoms: O_7  and  C_13
REMARK    8  A    between atoms: C_14  and  O_19
REMARK    9  A    between atoms: C_15  and  O_20
REMARK   10  A    between atoms: C_16  and  O_21
REMARK   11  A    between atoms: C_17  and  C_18
REMARK   12  A    between atoms: C_18  and  O_23
REMARK                            x       y       z     vdW  Elec       q    Type
REMARK                         _______ _______ _______ _____ _____    ______ ____
ROOT
ATOM      1  O   UNL     1      -6.795 -33.057 -15.330  0.00  0.00    +0.000 OA
ENDROOT
BRANCH   1   2
ATOM      2  C   UNL     1      -6.560 -32.404 -14.096  0.00  0.00    +0.000 C 
ATOM      3  C   UNL     1      -7.873 -32.135 -13.382  0.00  0.00    +0.000 C 
ATOM      4  C   UNL     1      -8.746 -31.146 -14.139  0.00  0.00    +0.000 C 
ATOM      5  C   UNL     1      -7.972 -29.847 -14.334  0.00  0.00    +0.000 C 
ATOM      6  C   UNL     1      -6.683 -30.201 -15.044  0.00  0.00    +0.000 C 
ATOM      7  O   UNL     1      -5.905 -31.142 -14.272  0.00  0.00    +0.000 OA
BRANCH   3   8
ATOM      8  O   UNL     1      -8.583 -33.372 -13.259  0.00  0.00    +0.000 OA
ATOM      9  H   UNL     1      -8.041 -34.005 -12.782  0.00  0.00    +0.000 HD
ENDBRANCH   3   8
BRANCH   4  10
ATOM     10  O   UNL     1      -9.967 -30.894 -13.369  0.00  0.00    +0.000 OA
ATOM     11  H   UNL     1     -10.446 -31.718 -13.252  0.00  0.00    +0.000 HD
ENDBRANCH   4  10
BRANCH   5  12
ATOM     12  O   UNL     1      -8.729 -28.899 -15.071  0.00  0.00    +0.000 OA
ATOM     13  H   UNL     1      -9.538 -28.697 -14.595  0.00  0.00    +0.000 HD
ENDBRANCH   5  12
BRANCH   6  14
ATOM     14  C   UNL     1      -5.788 -29.026 -15.280  0.00  0.00    +0.000 C 
BRANCH  14  15
ATOM     15  O   UNL     1      -4.644 -29.321 -16.092  0.00  0.00    +0.000 OA
ATOM     16  H   UNL     1      -4.117 -28.526 -16.202  0.00  0.00    +0.000 HD
ENDBRANCH  14  15
ENDBRANCH   6  14
ENDBRANCH   1   2
BRANCH   1  17
ATOM     17  C   UNL     1      -5.596 -33.555 -15.890  0.00  0.00    +0.000 C 
ATOM     18  C   UNL     1      -5.868 -34.120 -17.253  0.00  0.00    +0.000 C 
ATOM     19  C   UNL     1      -6.696 -35.402 -17.167  0.00  0.00    +0.000 C 
ATOM     20  C   UNL     1      -6.006 -36.293 -16.203  0.00  0.00    +0.000 C 
ATOM     21  C   UNL     1      -5.849 -35.634 -14.865  0.00  0.00    +0.000 C 
ATOM     22  O   UNL     1      -4.996 -34.499 -15.045  0.00  0.00    +0.000 OA
BRANCH  18  23
ATOM     23  O   UNL     1      -6.524 -33.190 -18.095  0.00  0.00    +0.000 OA
ATOM     24  H   UNL     1      -6.678 -33.591 -18.954  0.00  0.00    +0.000 HD
ENDBRANCH  18  23
BRANCH  19  25
ATOM     25  O   UNL     1      -6.799 -35.988 -18.505  0.00  0.00    +0.000 OA
ATOM     26  H   UNL     1      -7.318 -36.794 -18.461  0.00  0.00    +0.000 HD
ENDBRANCH  19  25
BRANCH  20  27
ATOM     27  O   UNL     1      -6.861 -37.449 -16.052  0.00  0.00    +0.000 OA
ATOM     28  H   UNL     1      -6.460 -38.064 -15.434  0.00  0.00    +0.000 HD
ENDBRANCH  20  27
BRANCH  21  29
ATOM     29  C   UNL     1      -5.148 -36.508 -13.793  0.00  0.00    +0.000 C 
BRANCH  29  30
ATOM     30  O   UNL     1      -6.164 -37.083 -12.976  0.00  0.00    +0.000 OA
ATOM     31  H   UNL     1      -5.758 -37.631 -12.301  0.00  0.00    +0.000 HD
ENDBRANCH  29  30
ENDBRANCH  21  29
ENDBRANCH   1  17
TORSDOF 12
