REMARK  Name = 6i76_ligand
REMARK  10 active torsions:
REMARK  status: ('A' for Active; 'I' for Inactive)
REMARK    1  A    between atoms: N_1  and  C_16
REMARK    2  A    between atoms: C_6  and  S_36
REMARK    3  A    between atoms: C_7  and  S_36
REMARK    4  A    between atoms: C_8  and  C_23
REMARK    5  A    between atoms: C_8  and  O_33
REMARK    6  A    between atoms: C_10  and  C_17
REMARK    7  A    between atoms: C_13  and  O_35
REMARK    8  A    between atoms: C_14  and  C_21
REMARK    9  A    between atoms: C_15  and  O_34
REMARK   10  A    between atoms: C_19  and  N_28
REMARK                            x       y       z     vdW  Elec       q    Type
REMARK                         _______ _______ _______ _____ _____    ______ ____
ROOT
ATOM      1  C   UNL     1     -19.858   8.449  -1.580  0.00  0.00    +0.000 C 
ATOM      2  C   UNL     1     -18.387   8.808  -1.398  0.00  0.00    +0.000 C 
ATOM      3  C   UNL     1     -18.102   6.492  -0.466  0.00  0.00    +0.000 C 
ATOM      4  C   UNL     1     -17.566   7.513  -1.473  0.00  0.00    +0.000 C 
ATOM      5  C   UNL     1     -19.590   6.234  -0.733  0.00  0.00    +0.000 C 
ATOM      6  O   UNL     1     -20.304   7.477  -0.640  0.00  0.00    +0.000 OA
ENDROOT
BRANCH   4   7
ATOM      7  N   UNL     1     -16.129   7.779  -1.318  0.00  0.00    +0.000 N 
ATOM      8  C   UNL     1     -15.447   8.162  -0.266  0.00  0.00    +0.000 A 
ATOM      9  C   UNL     1     -14.143   8.285  -0.666  0.00  0.00    +0.000 A 
ATOM     10  N   UNL     1     -14.081   7.942  -1.980  0.00  0.00    +0.000 NA
ATOM     11  N   UNL     1     -15.295   7.642  -2.378  0.00  0.00    +0.000 NA
BRANCH   9  12
ATOM     12  C   UNL     1     -12.947   8.669   0.081  0.00  0.00    +0.000 A 
ATOM     13  C   UNL     1     -10.736   9.621   0.160  0.00  0.00    +0.000 A 
ATOM     14  C   UNL     1     -12.844   8.446   1.439  0.00  0.00    +0.000 A 
ATOM     15  C   UNL     1     -11.861   9.256  -0.542  0.00  0.00    +0.000 A 
ATOM     16  C   UNL     1     -10.627   9.395   1.529  0.00  0.00    +0.000 A 
ATOM     17  C   UNL     1     -11.721   8.803   2.148  0.00  0.00    +0.000 A 
ATOM     18  F   UNL     1     -11.919   9.493  -1.862  0.00  0.00    +0.000 F 
ATOM     19  F   UNL     1      -9.721  10.188  -0.519  0.00  0.00    +0.000 F 
ATOM     20  F   UNL     1     -11.692   8.573   3.474  0.00  0.00    +0.000 F 
ATOM     21  F   UNL     1     -13.879   7.873   2.071  0.00  0.00    +0.000 F 
BRANCH  16  23
ATOM     22  N   UNL     1      -8.593  10.469   1.834  0.00  0.00    +0.000 NA
ATOM     23  N   UNL     1      -9.487   9.748   2.325  0.00  0.00    +0.000 NA
ATOM     24  N   UNL     1      -7.873  11.124   1.258  0.00  0.00    +0.000 NA
ENDBRANCH  16  23
ENDBRANCH   9  12
ENDBRANCH   4   7
BRANCH   3  25
ATOM     25  O   UNL     1     -17.952   6.968   0.868  0.00  0.00    +0.000 OA
ATOM     26  H   UNL     1     -18.294   6.313   1.481  0.00  0.00    +0.000 HD
ENDBRANCH   3  25
BRANCH   2  27
ATOM     27  O   UNL     1     -18.024   9.745  -2.419  0.00  0.00    +0.000 OA
ATOM     28  H   UNL     1     -17.099   9.983  -2.320  0.00  0.00    +0.000 HD
ENDBRANCH   2  27
BRANCH   5  29
ATOM     29  C   UNL     1     -20.222   5.273   0.250  0.00  0.00    +0.000 C 
BRANCH  29  30
ATOM     30  O   UNL     1     -21.589   5.015  -0.073  0.00  0.00    +0.000 OA
ATOM     31  H   UNL     1     -21.958   4.404   0.568  0.00  0.00    +0.000 HD
ENDBRANCH  29  30
ENDBRANCH   5  29
BRANCH   1  32
ATOM     32  S   UNL     1     -20.910   9.943  -1.473  0.00  0.00    +0.000 S 
BRANCH  32  36
ATOM     33  C   UNL     1     -23.301  10.536  -2.671  0.00  0.00    +0.000 A 
ATOM     34  C   UNL     1     -23.552   8.122  -3.965  0.00  0.00    +0.000 A 
ATOM     35  C   UNL     1     -22.445   8.366  -3.171  0.00  0.00    +0.000 A 
ATOM     36  C   UNL     1     -22.310   9.580  -2.510  0.00  0.00    +0.000 A 
ATOM     37  C   UNL     1     -25.760   8.802  -4.992  0.00  0.00    +0.000 C 
ATOM     38  C   UNL     1     -24.550   9.068  -4.127  0.00  0.00    +0.000 A 
ATOM     39  C   UNL     1     -24.402  10.274  -3.468  0.00  0.00    +0.000 A 
ENDBRANCH  32  36
ENDBRANCH   1  32
TORSDOF 9
