REMARK  Name = 6hhi_ligand
REMARK  9 active torsions:
REMARK  status: ('A' for Active; 'I' for Inactive)
REMARK    1  A    between atoms: C_6  and  C_7
REMARK    2  A    between atoms: C_17  and  C_18
REMARK    3  A    between atoms: C_23  and  C_24
REMARK    4  A    between atoms: C_24  and  N_25
REMARK    5  A    between atoms: C_30  and  N_31
REMARK    6  A    between atoms: C_32  and  C_34
REMARK    7  A    between atoms: C_39  and  N_40
REMARK    8  A    between atoms: C_41  and  C_43
REMARK    9  A    between atoms: C_43  and  C_44
REMARK                            x       y       z     vdW  Elec       q    Type
REMARK                         _______ _______ _______ _____ _____    ______ ____
ROOT
ATOM      1  C   UNL     1      -4.442   4.738  -9.996  0.00  0.00    +0.000 C 
ENDROOT
BRANCH   1   2
ATOM      2  N   UNL     1      -3.343   5.043  -9.075  0.00  0.00    +0.000 N 
ATOM      3  C   UNL     1      -2.380   5.942  -9.729  0.00  0.00    +0.000 C 
ATOM      4  C   UNL     1      -1.291   6.386  -8.756  0.00  0.00    +0.000 C 
ATOM      5  C   UNL     1      -3.957   5.705  -7.917  0.00  0.00    +0.000 C 
ATOM      6  C   UNL     1      -2.919   6.112  -6.900  0.00  0.00    +0.000 C 
ATOM      7  C   UNL     1      -1.964   7.078  -7.570  0.00  0.00    +0.000 C 
ATOM      8  H   UNL     1      -2.838   4.202  -8.795  0.00  0.00    +0.000 HD
BRANCH   7   9
ATOM      9  N   UNL     1      -0.978   7.589  -6.603  0.00  0.00    +0.000 N 
ATOM     10  C   UNL     1      -0.100   6.838  -5.920  0.00  0.00    +0.000 C 
ATOM     11  O   UNL     1       0.010   5.615  -6.005  0.00  0.00    +0.000 OA
ATOM     12  H   UNL     1      -0.961   8.596  -6.439  0.00  0.00    +0.000 HD
BRANCH  10  13
ATOM     13  C   UNL     1       0.718   7.575  -5.073  0.00  0.00    +0.000 A 
ATOM     14  C   UNL     1       0.561   8.954  -5.008  0.00  0.00    +0.000 A 
ATOM     15  C   UNL     1       1.688   6.950  -4.299  0.00  0.00    +0.000 A 
ATOM     16  C   UNL     1       2.494   7.710  -3.459  0.00  0.00    +0.000 A 
ATOM     17  C   UNL     1       2.337   9.089  -3.394  0.00  0.00    +0.000 A 
ATOM     18  C   UNL     1       1.365   9.710  -4.167  0.00  0.00    +0.000 A 
BRANCH  18  19
ATOM     19  N   UNL     1       1.200  11.029  -4.129  0.00  0.00    +0.000 N 
ATOM     20  C   UNL     1       1.804  11.712  -5.110  0.00  0.00    +0.000 C 
ATOM     21  O   UNL     1       2.482  11.182  -5.983  0.00  0.00    +0.000 OA
ATOM     22  H   UNL     1       0.651  11.489  -3.403  0.00  0.00    +0.000 HD
BRANCH  20  23
ATOM     23  C   UNL     1       1.623  13.224  -5.098  0.00  0.00    +0.000 C 
ATOM     24  C   UNL     1       2.331  13.948  -6.242  0.00  0.00    +0.000 C 
ENDBRANCH  20  23
ENDBRANCH  18  19
ENDBRANCH  10  13
ENDBRANCH   7   9
ENDBRANCH   1   2
BRANCH   1  30
ATOM     25  C   UNL     1      -3.431   2.128 -13.096  0.00  0.00    +0.000 A 
ATOM     26  C   UNL     1      -4.004   3.371 -13.360  0.00  0.00    +0.000 A 
ATOM     27  C   UNL     1      -4.346   4.229 -12.327  0.00  0.00    +0.000 A 
ATOM     28  C   UNL     1      -3.173   1.765 -11.777  0.00  0.00    +0.000 A 
ATOM     29  C   UNL     1      -3.509   2.627 -10.738  0.00  0.00    +0.000 A 
ATOM     30  C   UNL     1      -4.089   3.861 -11.015  0.00  0.00    +0.000 A 
BRANCH  25  41
ATOM     31  C   UNL     1      -4.023   0.850 -15.124  0.00  0.00    +0.000 A 
ATOM     32  C   UNL     1      -3.603   0.013 -16.150  0.00  0.00    +0.000 A 
ATOM     33  C   UNL     1      -2.278  -0.394 -16.192  0.00  0.00    +0.000 A 
ATOM     34  C   UNL     1      -1.816  -1.236 -17.201  0.00  0.00    +0.000 C 
ATOM     35  O   UNL     1      -2.569  -1.645 -18.086  0.00  0.00    +0.000 OA
ATOM     36  N   UNL     1      -0.469  -1.622 -17.208  0.00  0.00    +0.000 NA
ATOM     37  C   UNL     1       0.364  -1.201 -16.273  0.00  0.00    +0.000 C 
ATOM     38  C   UNL     1      -0.073  -0.362 -15.257  0.00  0.00    +0.000 C 
ATOM     39  C   UNL     1      -1.400   0.046 -15.213  0.00  0.00    +0.000 A 
ATOM     40  N   UNL     1      -1.823   0.855 -14.231  0.00  0.00    +0.000 NA
ATOM     41  C   UNL     1      -3.097   1.273 -14.153  0.00  0.00    +0.000 A 
BRANCH  31  47
ATOM     42  C   UNL     1      -5.924   1.795 -16.254  0.00  0.00    +0.000 A 
ATOM     43  C   UNL     1      -7.260   2.179 -16.255  0.00  0.00    +0.000 A 
ATOM     44  C   UNL     1      -8.043   1.993 -15.123  0.00  0.00    +0.000 A 
ATOM     45  C   UNL     1      -7.494   1.421 -13.982  0.00  0.00    +0.000 A 
ATOM     46  C   UNL     1      -6.163   1.031 -13.986  0.00  0.00    +0.000 A 
ATOM     47  C   UNL     1      -5.367   1.230 -15.116  0.00  0.00    +0.000 A 
ENDBRANCH  31  47
ENDBRANCH  25  41
ENDBRANCH   1  30
TORSDOF 8
