REMARK  Name = 6hzb_ligand
REMARK  19 active torsions:
REMARK  status: ('A' for Active; 'I' for Inactive)
REMARK    1  A    between atoms: C_2  and  C_5
REMARK    2  A    between atoms: C_5  and  C_6
REMARK    3  A    between atoms: C_6  and  C_7
REMARK    4  A    between atoms: C_7  and  N_8
REMARK    5  A    between atoms: C_13  and  C_16
REMARK    6  A    between atoms: C_16  and  C_17
REMARK    7  A    between atoms: C_17  and  C_18
REMARK    8  A    between atoms: C_18  and  N_19
REMARK    9  A    between atoms: C_24  and  C_25
REMARK   10  A    between atoms: N_32  and  C_33
REMARK   11  A    between atoms: C_33  and  C_34
REMARK   12  A    between atoms: C_33  and  C_36
REMARK   13  A    between atoms: C_36  and  C_37
REMARK   14  A    between atoms: C_37  and  C_38
REMARK   15  A    between atoms: C_38  and  C_39
REMARK   16  A    between atoms: C_39  and  N_40
REMARK   17  A    between atoms: N_41  and  C_42
REMARK   18  A    between atoms: C_42  and  C_43
REMARK   19  A    between atoms: C_46  and  C_47
REMARK                            x       y       z     vdW  Elec       q    Type
REMARK                         _______ _______ _______ _____ _____    ______ ____
ROOT
ATOM      1  N   UNL     1      54.716 -34.343  -4.976  0.00  0.00    +0.000 N 
ATOM      2  C   UNL     1      54.059 -34.255  -3.642  0.00  0.00    +0.000 C 
ATOM      3  C   UNL     1      52.682 -34.543  -3.733  0.00  0.00    +0.000 C 
ATOM      4  O   UNL     1      52.116 -35.205  -2.863  0.00  0.00    +0.000 OA
ATOM      5  N   UNL     1      51.938 -34.114  -4.845  0.00  0.00    +0.000 N 
ATOM      6  C   UNL     1      50.483 -34.405  -4.984  0.00  0.00    +0.000 C 
ATOM      7  C   UNL     1      50.258 -34.889  -6.284  0.00  0.00    +0.000 C 
ATOM      8  O   UNL     1      50.946 -34.497  -7.228  0.00  0.00    +0.000 OA
ATOM      9  N   UNL     1      49.255 -35.842  -6.517  0.00  0.00    +0.000 N 
ATOM     10  C   UNL     1      48.994 -36.460  -7.845  0.00  0.00    +0.000 C 
ATOM     11  C   UNL     1      49.187 -37.953  -7.691  0.00  0.00    +0.000 C 
ATOM     12  C   UNL     1      50.598 -38.325  -7.337  0.00  0.00    +0.000 C 
ATOM     13  C   UNL     1      51.433 -38.188  -8.577  0.00  0.00    +0.000 C 
ATOM     14  C   UNL     1      52.707 -38.988  -8.388  0.00  0.00    +0.000 C 
ATOM     15  N   UNL     1      53.614 -38.348  -7.412  0.00  0.00    +0.000 N 
ATOM     16  C   UNL     1      54.722 -35.572  -5.662  0.00  0.00    +0.000 C 
ATOM     17  C   UNL     1      55.311 -35.692  -6.940  0.00  0.00    +0.000 C 
ATOM     18  C   UNL     1      56.401 -36.792  -7.008  0.00  0.00    +0.000 C 
ATOM     19  C   UNL     1      55.913 -38.205  -6.587  0.00  0.00    +0.000 C 
ATOM     20  C   UNL     1      54.959 -38.738  -7.461  0.00  0.00    +0.000 C 
ATOM     21  O   UNL     1      54.126 -36.515  -5.138  0.00  0.00    +0.000 OA
ATOM     22  O   UNL     1      55.270 -39.609  -8.274  0.00  0.00    +0.000 OA
ATOM     23  H   UNL     1      55.157 -33.521  -5.388  0.00  0.00    +0.000 HD
ATOM     24  H   UNL     1      52.409 -33.587  -5.580  0.00  0.00    +0.000 HD
ATOM     25  H   UNL     1      48.671 -36.127  -5.731  0.00  0.00    +0.000 HD
ATOM     26  H   UNL     1      53.279 -37.659  -6.739  0.00  0.00    +0.000 HD
ENDROOT
BRANCH  10  27
ATOM     27  C   UNL     1      47.658 -36.369  -8.232  0.00  0.00    +0.000 C 
ATOM     28  O   UNL     1      46.774 -36.467  -7.391  0.00  0.00    +0.000 OA
ATOM     29  N   UNL     1      47.416 -36.279  -9.560  0.00  0.00    +0.000 N 
ATOM     30  H   UNL     1      48.208 -36.203 -10.199  0.00  0.00    +0.000 HD
BRANCH  29  31
ATOM     31  C   UNL     1      46.052 -36.286 -10.120  0.00  0.00    +0.000 C 
BRANCH  31  32
ATOM     32  C   UNL     1      45.452 -37.645  -9.767  0.00  0.00    +0.000 C 
ATOM     33  O   UNL     1      46.152 -38.639  -9.879  0.00  0.00    +0.000 OA
ATOM     34  N   UNL     1      44.185 -37.682  -9.316  0.00  0.00    +0.000 N 
ATOM     35  H   UNL     1      43.641 -36.821  -9.274  0.00  0.00    +0.000 HD
BRANCH  34  36
ATOM     36  C   UNL     1      43.572 -38.953  -8.881  0.00  0.00    +0.000 C 
BRANCH  36  37
ATOM     37  C   UNL     1      43.634 -39.004  -7.455  0.00  0.00    +0.000 A 
ATOM     38  C   UNL     1      42.534 -38.697  -6.657  0.00  0.00    +0.000 A 
ATOM     39  C   UNL     1      42.622 -38.734  -5.255  0.00  0.00    +0.000 A 
ATOM     40  C   UNL     1      43.804 -39.085  -4.603  0.00  0.00    +0.000 A 
ATOM     41  C   UNL     1      44.897 -39.387  -5.406  0.00  0.00    +0.000 A 
ATOM     42  C   UNL     1      44.817 -39.340  -6.805  0.00  0.00    +0.000 A 
BRANCH  40  43
ATOM     43  C   UNL     1      43.909 -39.131  -3.188  0.00  0.00    +0.000 C 
ATOM     44  N   UNL     1      45.094 -39.394  -2.624  0.00  0.00    +0.000 N 
ATOM     45  N   UNL     1      42.833 -38.879  -2.442  0.00  0.00    +0.000 NA
ATOM     46  H   UNL     1      45.184 -39.404  -1.608  0.00  0.00    +0.000 HD
ATOM     47  H   UNL     1      45.907 -39.585  -3.210  0.00  0.00    +0.000 HD
ATOM     48  H   UNL     1      41.944 -38.655  -2.889  0.00  0.00    +0.000 HD
ENDBRANCH  40  43
ENDBRANCH  36  37
ENDBRANCH  34  36
ENDBRANCH  31  32
BRANCH  31  49
ATOM     49  C   UNL     1      46.045 -36.094 -11.649  0.00  0.00    +0.000 C 
BRANCH  49  50
ATOM     50  C   UNL     1      46.474 -34.689 -12.031  0.00  0.00    +0.000 C 
BRANCH  50  51
ATOM     51  C   UNL     1      46.574 -34.567 -13.564  0.00  0.00    +0.000 C 
BRANCH  51  52
ATOM     52  C   UNL     1      47.443 -33.341 -13.893  0.00  0.00    +0.000 C 
BRANCH  52  53
ATOM     53  N   UNL     1      47.208 -32.835 -15.256  0.00  0.00    +0.000 N 
ATOM     54  H   UNL     1      47.805 -32.026 -15.425  0.00  0.00    +0.000 HD
ATOM     55  H   UNL     1      47.427 -33.567 -15.932  0.00  0.00    +0.000 HD
ATOM     56  H   UNL     1      46.230 -32.563 -15.352  0.00  0.00    +0.000 HD
ENDBRANCH  52  53
ENDBRANCH  51  52
ENDBRANCH  50  51
ENDBRANCH  49  50
ENDBRANCH  31  49
ENDBRANCH  29  31
ENDBRANCH  10  27
BRANCH   6  57
ATOM     57  C   UNL     1      49.631 -33.163  -4.676  0.00  0.00    +0.000 C 
BRANCH  57  58
ATOM     58  C   UNL     1      49.894 -32.693  -3.227  0.00  0.00    +0.000 C 
BRANCH  58  59
ATOM     59  C   UNL     1      49.160 -33.609  -2.224  0.00  0.00    +0.000 C 
BRANCH  59  60
ATOM     60  N   UNL     1      49.367 -33.150  -0.834  0.00  0.00    +0.000 N 
ATOM     61  C   UNL     1      50.200 -33.736   0.061  0.00  0.00    +0.000 C 
ATOM     62  N   UNL     1      50.928 -34.807  -0.278  0.00  0.00    +0.000 NA
ATOM     63  N   UNL     1      50.289 -33.266   1.312  0.00  0.00    +0.000 N 
ATOM     64  H   UNL     1      48.844 -32.331  -0.525  0.00  0.00    +0.000 HD
ATOM     65  H   UNL     1      50.860 -35.192  -1.220  0.00  0.00    +0.000 HD
ATOM     66  H   UNL     1      50.903 -33.723   1.986  0.00  0.00    +0.000 HD
ATOM     67  H   UNL     1      49.743 -32.451   1.591  0.00  0.00    +0.000 HD
ENDBRANCH  59  60
ENDBRANCH  58  59
ENDBRANCH  57  58
ENDBRANCH   6  57
BRANCH   2  68
ATOM     68  C   UNL     1      54.280 -32.855  -3.058  0.00  0.00    +0.000 C 
BRANCH  68  69
ATOM     69  C   UNL     1      53.711 -32.751  -1.622  0.00  0.00    +0.000 C 
BRANCH  69  70
ATOM     70  C   UNL     1      54.109 -31.391  -1.046  0.00  0.00    +0.000 C 
BRANCH  70  71
ATOM     71  N   UNL     1      53.496 -31.158   0.273  0.00  0.00    +0.000 N 
ATOM     72  C   UNL     1      52.301 -30.563   0.448  0.00  0.00    +0.000 C 
ATOM     73  N   UNL     1      51.819 -30.362   1.697  0.00  0.00    +0.000 N 
ATOM     74  N   UNL     1      51.602 -30.159  -0.631  0.00  0.00    +0.000 NA
ATOM     75  H   UNL     1      54.006 -31.465   1.101  0.00  0.00    +0.000 HD
ATOM     76  H   UNL     1      50.919 -29.901   1.828  0.00  0.00    +0.000 HD
ATOM     77  H   UNL     1      52.356 -30.672   2.507  0.00  0.00    +0.000 HD
ATOM     78  H   UNL     1      51.980 -30.305  -1.567  0.00  0.00    +0.000 HD
ENDBRANCH  70  71
ENDBRANCH  69  70
ENDBRANCH  68  69
ENDBRANCH   2  68
TORSDOF 19
