REMARK  Name = 6qr1_ligand
REMARK  4 active torsions:
REMARK  status: ('A' for Active; 'I' for Inactive)
REMARK    1  A    between atoms: C_2  and  C_15
REMARK    2  A    between atoms: C_3  and  C_4
REMARK    3  A    between atoms: C_8  and  C_9
REMARK    4  A    between atoms: C_8  and  N_19
REMARK                            x       y       z     vdW  Elec       q    Type
REMARK                         _______ _______ _______ _____ _____    ______ ____
ROOT
ATOM      1  C   UNL     1     -22.075  20.491 -11.495  0.00  0.00    +0.000 A 
ATOM      2  C   UNL     1     -24.060  18.556 -10.997  0.00  0.00    +0.000 A 
ATOM      3  C   UNL     1     -25.390  20.648 -10.135  0.00  0.00    +0.000 A 
ATOM      4  C   UNL     1     -25.049  22.029 -10.072  0.00  0.00    +0.000 A 
ATOM      5  C   UNL     1     -23.319  20.890 -10.935  0.00  0.00    +0.000 A 
ATOM      6  C   UNL     1     -21.869  19.142 -11.837  0.00  0.00    +0.000 A 
ATOM      7  C   UNL     1     -22.833  18.164 -11.545  0.00  0.00    +0.000 A 
ATOM      8  C   UNL     1     -24.290  19.930 -10.695  0.00  0.00    +0.000 A 
ATOM      9  N   UNL     1     -23.804  22.143 -10.551  0.00  0.00    +0.000 N 
ATOM     10 CL   UNL     1     -26.844  19.872  -9.634  0.00  0.00    +0.000 Cl
ENDROOT
BRANCH   6  11
ATOM     11  C   UNL     1     -20.481  18.749 -12.291  0.00  0.00    +0.000 A 
ATOM     12  C   UNL     1     -19.913  17.457 -12.465  0.00  0.00    +0.000 A 
ATOM     13  C   UNL     1     -18.581  17.655 -12.697  0.00  0.00    +0.000 A 
ATOM     14  N   UNL     1     -19.463  19.642 -12.299  0.00  0.00    +0.000 NA
ATOM     15  N   UNL     1     -18.328  18.970 -12.596  0.00  0.00    +0.000 NA
ATOM     16  N   UNL     1     -17.611  16.611 -12.990  0.00  0.00    +0.000 N 
ATOM     17  H   UNL     1     -17.909  15.636 -13.035  0.00  0.00    +0.000 HD
ATOM     18  H   UNL     1     -16.633  16.854 -13.150  0.00  0.00    +0.000 HD
BRANCH  12  19
ATOM     19  C   UNL     1     -20.561  16.095 -12.509  0.00  0.00    +0.000 C 
ATOM     20  N   UNL     1     -20.996  15.055 -12.552  0.00  0.00    +0.000 NA
ENDBRANCH  12  19
ENDBRANCH   6  11
BRANCH   9  21
ATOM     21  C   UNL     1     -23.036  23.365 -10.665  0.00  0.00    +0.000 C 
BRANCH  21  22
ATOM     22  C   UNL     1     -22.154  23.495  -9.424  0.00  0.00    +0.000 A 
ATOM     23  C   UNL     1     -22.567  22.990  -8.166  0.00  0.00    +0.000 A 
ATOM     24  C   UNL     1     -21.707  23.140  -7.057  0.00  0.00    +0.000 A 
ATOM     25  C   UNL     1     -20.465  23.780  -7.247  0.00  0.00    +0.000 A 
ATOM     26  C   UNL     1     -20.891  24.121  -9.500  0.00  0.00    +0.000 A 
ATOM     27  N   UNL     1     -20.110  24.241  -8.440  0.00  0.00    +0.000 NA
ENDBRANCH  21  22
ENDBRANCH   9  21
TORSDOF 4
