REMARK  Name = 6gj6_ligand
REMARK  6 active torsions:
REMARK  status: ('A' for Active; 'I' for Inactive)
REMARK    1  A    between atoms: C_4  and  C_10
REMARK    2  A    between atoms: C_7  and  C_11
REMARK    3  A    between atoms: C_7  and  N_21
REMARK    4  A    between atoms: C_8  and  N_21
REMARK    5  A    between atoms: C_17  and  N_21
REMARK    6  A    between atoms: C_18  and  O_24
REMARK                            x       y       z     vdW  Elec       q    Type
REMARK                         _______ _______ _______ _____ _____    ______ ____
ROOT
ATOM      1  C   UNL     1      16.701  31.665  12.339  0.00  0.00    +0.000 C 
ATOM      2  C   UNL     1      14.554  32.441  11.449  0.00  0.00    +0.000 C 
ATOM      3  C   UNL     1      17.733  32.230  13.176  0.00  0.00    +0.000 C 
ATOM      4  C   UNL     1      17.325  33.489  13.516  0.00  0.00    +0.000 C 
ATOM      5  C   UNL     1      15.699  32.649  12.215  0.00  0.00    +0.000 C 
ATOM      6  C   UNL     1      16.533  30.453  11.669  0.00  0.00    +0.000 C 
ATOM      7  C   UNL     1      14.413  31.222  10.794  0.00  0.00    +0.000 C 
ATOM      8  C   UNL     1      15.380  30.231  10.920  0.00  0.00    +0.000 C 
ATOM      9  N   UNL     1      16.098  33.752  12.948  0.00  0.00    +0.000 NA
ENDROOT
BRANCH   3  13
ATOM     10  C   UNL     1      20.599  31.984  11.636  0.00  0.00    +0.000 A 
ATOM     11  C   UNL     1      19.947  31.174  12.560  0.00  0.00    +0.000 A 
ATOM     12  C   UNL     1      20.144  29.805  12.535  0.00  0.00    +0.000 A 
ATOM     13  C   UNL     1      18.988  31.525  13.656  0.00  0.00    +0.000 C 
ATOM     14  C   UNL     1      20.954  29.218  11.564  0.00  0.00    +0.000 A 
ATOM     15  C   UNL     1      21.586  30.022  10.630  0.00  0.00    +0.000 A 
ATOM     16  C   UNL     1      21.408  31.402  10.669  0.00  0.00    +0.000 A 
ATOM     17  C   UNL     1      19.352  29.202  13.625  0.00  0.00    +0.000 C 
ATOM     18  N   UNL     1      18.712  30.215  14.234  0.00  0.00    +0.000 N 
ATOM     19  O   UNL     1      19.256  28.013  13.909  0.00  0.00    +0.000 OA
ATOM     20  H   UNL     1      18.089  30.079  15.030  0.00  0.00    +0.000 HD
BRANCH  16  21
ATOM     21  O   UNL     1      22.056  32.208   9.794  0.00  0.00    +0.000 OA
ATOM     22  H   UNL     1      22.573  31.671   9.189  0.00  0.00    +0.000 HD
ENDBRANCH  16  21
ENDBRANCH   3  13
BRANCH   4  23
ATOM     23  C   UNL     1      17.974  34.465  14.452  0.00  0.00    +0.000 C 
BRANCH  23  26
ATOM     24  C   UNL     1      17.230  33.411  16.497  0.00  0.00    +0.000 C 
ATOM     25  C   UNL     1      17.805  35.740  16.490  0.00  0.00    +0.000 C 
ATOM     26  N   UNL     1      17.236  34.646  15.707  0.00  0.00    +0.000 N 
ATOM     27  H   UNL     1      16.272  34.881  15.469  0.00  0.00    +0.000 HD
ENDBRANCH  23  26
ENDBRANCH   4  23
TORSDOF 4
