REMARK  Name = 6ooy_ligand
REMARK  6 active torsions:
REMARK  status: ('A' for Active; 'I' for Inactive)
REMARK    1  A    between atoms: C_1  and  C_7
REMARK    2  A    between atoms: C_3  and  C_20
REMARK    3  A    between atoms: C_6  and  C_8
REMARK    4  A    between atoms: C_7  and  N_9
REMARK    5  A    between atoms: O_15  and  C_16
REMARK    6  A    between atoms: C_16  and  C_17
REMARK                            x       y       z     vdW  Elec       q    Type
REMARK                         _______ _______ _______ _____ _____    ______ ____
ROOT
ATOM      1  N   UNL     1     -12.176   0.278 -18.399  0.00  0.00    +0.000 N 
ATOM      2  C   UNL     1     -13.951   0.353 -17.141  0.00  0.00    +0.000 A 
ATOM      3  C   UNL     1     -15.291   0.609 -16.909  0.00  0.00    +0.000 A 
ATOM      4  C   UNL     1     -16.101   1.098 -17.922  0.00  0.00    +0.000 A 
ATOM      5  C   UNL     1     -15.573   1.371 -19.173  0.00  0.00    +0.000 A 
ATOM      6  C   UNL     1     -14.240   1.118 -19.435  0.00  0.00    +0.000 A 
ATOM      7  C   UNL     1     -11.880  -0.170 -17.179  0.00  0.00    +0.000 A 
ATOM      8  C   UNL     1     -13.445   0.616 -18.410  0.00  0.00    +0.000 A 
ATOM      9  N   UNL     1     -12.968  -0.149 -16.366  0.00  0.00    +0.000 NA
ENDROOT
BRANCH   1  10
ATOM     10  C   UNL     1     -11.255   0.391 -19.528  0.00  0.00    +0.000 C 
BRANCH  10  11
ATOM     11  C   UNL     1     -11.059   1.827 -19.996  0.00  0.00    +0.000 A 
ATOM     12  C   UNL     1     -10.798   2.818 -19.104  0.00  0.00    +0.000 A 
ATOM     13  C   UNL     1     -10.605   4.133 -19.545  0.00  0.00    +0.000 A 
ATOM     14  C   UNL     1     -10.598   4.446 -20.910  0.00  0.00    +0.000 A 
ATOM     15  C   UNL     1     -10.810   3.433 -21.833  0.00  0.00    +0.000 A 
ATOM     16  C   UNL     1     -11.026   2.112 -21.376  0.00  0.00    +0.000 A 
ATOM     17  C   UNL     1     -11.284   0.964 -22.359  0.00  0.00    +0.000 C 
ATOM     18  C   UNL     1     -10.354   5.205 -18.524  0.00  0.00    +0.000 C 
ENDBRANCH  10  11
ENDBRANCH   1  10
BRANCH   7  19
ATOM     19  C   UNL     1     -10.512  -0.640 -16.837  0.00  0.00    +0.000 C 
BRANCH  19  20
ATOM     20  O   UNL     1     -10.583  -1.121 -15.513  0.00  0.00    +0.000 OA
ATOM     21  H   UNL     1      -9.718  -1.439 -15.242  0.00  0.00    +0.000 HD
ENDBRANCH  19  20
ENDBRANCH   7  19
TORSDOF 4
