REMARK  Name = 6inz_ligand
REMARK  12 active torsions:
REMARK  status: ('A' for Active; 'I' for Inactive)
REMARK    1  A    between atoms: C_1  and  O_22
REMARK    2  A    between atoms: C_2  and  O_7
REMARK    3  A    between atoms: C_3  and  O_8
REMARK    4  A    between atoms: C_5  and  C_6
REMARK    5  A    between atoms: C_6  and  O_10
REMARK    6  A    between atoms: C_12  and  O_21
REMARK    7  A    between atoms: C_13  and  N_20
REMARK    8  A    between atoms: C_14  and  O_22
REMARK    9  A    between atoms: C_15  and  O_23
REMARK   10  A    between atoms: C_16  and  C_17
REMARK   11  A    between atoms: C_17  and  O_25
REMARK   12  A    between atoms: C_18  and  C_19
REMARK                            x       y       z     vdW  Elec       q    Type
REMARK                         _______ _______ _______ _____ _____    ______ ____
ROOT
ATOM      1  C   UNL     1       2.633  -9.808 -18.479  0.00  0.00    +0.000 C 
ATOM      2  C   UNL     1       2.013  -8.406 -18.720  0.00  0.00    +0.000 C 
ATOM      3  C   UNL     1       1.509  -8.364 -20.154  0.00  0.00    +0.000 C 
ATOM      4  C   UNL     1       2.725  -8.649 -21.093  0.00  0.00    +0.000 C 
ATOM      5  C   UNL     1       3.482  -9.943 -20.705  0.00  0.00    +0.000 C 
ATOM      6  O   UNL     1       3.796 -10.028 -19.288  0.00  0.00    +0.000 OA
ENDROOT
BRANCH   2   9
ATOM      7  C   UNL     1       0.899  -7.236 -16.960  0.00  0.00    +0.000 C 
ATOM      8  C   UNL     1      -0.213  -7.237 -15.938  0.00  0.00    +0.000 C 
ATOM      9  N   UNL     1       0.905  -8.240 -17.836  0.00  0.00    +0.000 N 
ATOM     10  O   UNL     1       1.779  -6.362 -17.038  0.00  0.00    +0.000 OA
ATOM     11  H   UNL     1       0.119  -8.889 -17.875  0.00  0.00    +0.000 HD
ENDBRANCH   2   9
BRANCH   1  12
ATOM     12  O   UNL     1       3.205  -9.685 -17.184  0.00  0.00    +0.000 OA
ATOM     13  H   UNL     1       3.621 -10.515 -16.939  0.00  0.00    +0.000 HD
ENDBRANCH   1  12
BRANCH   4  14
ATOM     14  O   UNL     1       2.296  -8.756 -22.480  0.00  0.00    +0.000 OA
ATOM     15  H   UNL     1       3.058  -8.931 -23.037  0.00  0.00    +0.000 HD
ENDBRANCH   4  14
BRANCH   5  16
ATOM     16  C   UNL     1       4.743 -10.241 -21.498  0.00  0.00    +0.000 C 
BRANCH  16  17
ATOM     17  O   UNL     1       5.225 -11.400 -20.867  0.00  0.00    +0.000 OA
ATOM     18  H   UNL     1       6.036 -11.683 -21.296  0.00  0.00    +0.000 HD
ENDBRANCH  16  17
ENDBRANCH   5  16
BRANCH   3  19
ATOM     19  O   UNL     1       0.841  -7.092 -20.451  0.00  0.00    +0.000 OA
BRANCH  19  20
ATOM     20  C   UNL     1      -0.278  -7.189 -21.316  0.00  0.00    +0.000 C 
ATOM     21  C   UNL     1      -1.172  -6.070 -20.905  0.00  0.00    +0.000 C 
ATOM     22  C   UNL     1      -2.459  -6.185 -21.738  0.00  0.00    +0.000 C 
ATOM     23  C   UNL     1      -2.125  -6.266 -23.212  0.00  0.00    +0.000 C 
ATOM     24  C   UNL     1      -0.932  -6.746 -23.603  0.00  0.00    +0.000 C 
ATOM     25  O   UNL     1       0.113  -6.994 -22.661  0.00  0.00    +0.000 OA
BRANCH  24  26
ATOM     26  C   UNL     1      -0.520  -7.032 -24.987  0.00  0.00    +0.000 C 
ATOM     27  O   UNL     1       0.677  -7.303 -25.094  0.00  0.00    +0.000 OA
BRANCH  26  28
ATOM     28  O   UNL     1      -1.316  -7.031 -25.985  0.00  0.00    +0.000 OA
ATOM     29  H   UNL     1      -2.198  -6.795 -25.689  0.00  0.00    +0.000 HD
ENDBRANCH  26  28
ENDBRANCH  24  26
BRANCH  21  30
ATOM     30  O   UNL     1      -1.417  -6.286 -19.517  0.00  0.00    +0.000 OA
ATOM     31  H   UNL     1      -0.593  -6.206 -19.032  0.00  0.00    +0.000 HD
ENDBRANCH  21  30
BRANCH  22  32
ATOM     32  O   UNL     1      -3.177  -4.951 -21.582  0.00  0.00    +0.000 OA
ATOM     33  H   UNL     1      -3.421  -4.838 -20.660  0.00  0.00    +0.000 HD
ENDBRANCH  22  32
ENDBRANCH  19  20
ENDBRANCH   3  19
TORSDOF 11
