REMARK  Name = 6jbe_ligand
REMARK  6 active torsions:
REMARK  status: ('A' for Active; 'I' for Inactive)
REMARK    1  A    between atoms: C_1  and  O_7
REMARK    2  A    between atoms: C_2  and  O_8
REMARK    3  A    between atoms: C_3  and  O_9
REMARK    4  A    between atoms: C_4  and  O_10
REMARK    5  A    between atoms: C_5  and  C_6
REMARK    6  A    between atoms: C_6  and  O_12
REMARK                            x       y       z     vdW  Elec       q    Type
REMARK                         _______ _______ _______ _____ _____    ______ ____
ROOT
ATOM      1  C   UNL     1      -6.573 -32.435 -14.245  0.00  0.00    +0.000 C 
ATOM      2  C   UNL     1      -7.903 -32.240 -13.502  0.00  0.00    +0.000 C 
ATOM      3  C   UNL     1      -8.746 -31.249 -14.261  0.00  0.00    +0.000 C 
ATOM      4  C   UNL     1      -7.935 -29.962 -14.439  0.00  0.00    +0.000 C 
ATOM      5  C   UNL     1      -6.609 -30.196 -15.160  0.00  0.00    +0.000 C 
ATOM      6  O   UNL     1      -5.872 -31.236 -14.496  0.00  0.00    +0.000 OA
ENDROOT
BRANCH   1   7
ATOM      7  O   UNL     1      -6.918 -33.050 -15.489  0.00  0.00    +0.000 OA
ATOM      8  H   UNL     1      -7.395 -33.866 -15.320  0.00  0.00    +0.000 HD
ENDBRANCH   1   7
BRANCH   2   9
ATOM      9  O   UNL     1      -8.653 -33.420 -13.403  0.00  0.00    +0.000 OA
ATOM     10  H   UNL     1      -8.147 -34.080 -12.923  0.00  0.00    +0.000 HD
ENDBRANCH   2   9
BRANCH   3  11
ATOM     11  O   UNL     1      -9.960 -30.925 -13.501  0.00  0.00    +0.000 OA
ATOM     12  H   UNL     1     -10.482 -31.721 -13.379  0.00  0.00    +0.000 HD
ENDBRANCH   3  11
BRANCH   4  13
ATOM     13  O   UNL     1      -8.730 -28.986 -15.162  0.00  0.00    +0.000 OA
ATOM     14  H   UNL     1      -9.560 -28.846 -14.701  0.00  0.00    +0.000 HD
ENDBRANCH   4  13
BRANCH   5  15
ATOM     15  C   UNL     1      -5.718 -28.989 -15.286  0.00  0.00    +0.000 C 
BRANCH  15  16
ATOM     16  O   UNL     1      -4.546 -29.230 -16.074  0.00  0.00    +0.000 OA
ATOM     17  H   UNL     1      -4.021 -28.428 -16.118  0.00  0.00    +0.000 HD
ENDBRANCH  15  16
ENDBRANCH   5  15
TORSDOF 6
