REMARK  Name = 6qxa_ligand
REMARK  3 active torsions:
REMARK  status: ('A' for Active; 'I' for Inactive)
REMARK    1  A    between atoms: C_3  and  C_4
REMARK    2  A    between atoms: C_11  and  C_12
REMARK    3  A    between atoms: C_11  and  N_19
REMARK                            x       y       z     vdW  Elec       q    Type
REMARK                         _______ _______ _______ _____ _____    ______ ____
ROOT
ATOM      1  C   UNL     1     -55.893  13.486  -5.595  0.00  0.00    +0.000 C 
ENDROOT
BRANCH   1   3
ATOM      2  C   UNL     1     -57.524   9.732  -7.470  0.00  0.00    +0.000 A 
ATOM      3  C   UNL     1     -56.388  12.137  -6.304  0.00  0.00    +0.000 A 
ATOM      4  C   UNL     1     -55.573  11.167  -6.928  0.00  0.00    +0.000 A 
ATOM      5  C   UNL     1     -56.149  10.003  -7.500  0.00  0.00    +0.000 A 
ATOM      6  C   UNL     1     -57.000   7.809  -8.609  0.00  0.00    +0.000 A 
ATOM      7  C   UNL     1     -58.342  10.696  -6.825  0.00  0.00    +0.000 A 
ATOM      8  C   UNL     1     -57.763  11.851  -6.259  0.00  0.00    +0.000 A 
ATOM      9  N   UNL     1     -57.060   6.601  -9.270  0.00  0.00    +0.000 N 
ATOM     10  N   UNL     1     -57.989   8.501  -8.093  0.00  0.00    +0.000 NA
ATOM     11  S   UNL     1     -55.376   8.657  -8.352  0.00  0.00    +0.000 S 
ATOM     12  H   UNL     1     -57.959   6.138  -9.406  0.00  0.00    +0.000 HD
ATOM     13  H   UNL     1     -56.206   6.170  -9.623  0.00  0.00    +0.000 HD
ENDBRANCH   1   3
BRANCH   1  15
ATOM     14  C   UNL     1     -55.488  12.269  -3.327  0.00  0.00    +0.000 C 
ATOM     15  N   UNL     1     -55.127  13.274  -4.310  0.00  0.00    +0.000 N 
ATOM     16  O   UNL     1     -56.500  11.595  -3.632  0.00  0.00    +0.000 OA
ATOM     17  H   UNL     1     -54.317  13.866  -4.124  0.00  0.00    +0.000 HD
BRANCH  14  19
ATOM     18  C   UNL     1     -53.858  10.453  -0.400  0.00  0.00    +0.000 C 
ATOM     19  C   UNL     1     -54.843  11.853  -1.994  0.00  0.00    +0.000 C 
ATOM     20  C   UNL     1     -54.593  12.620  -0.831  0.00  0.00    +0.000 C 
ATOM     21  C   UNL     1     -53.968  11.727   0.170  0.00  0.00    +0.000 C 
ATOM     22  C   UNL     1     -53.505  11.965   1.509  0.00  0.00    +0.000 C 
ATOM     23  C   UNL     1     -52.943  10.896   2.223  0.00  0.00    +0.000 C 
ATOM     24  C   UNL     1     -52.838   9.618   1.649  0.00  0.00    +0.000 C 
ATOM     25  C   UNL     1     -53.276   9.367   0.362  0.00  0.00    +0.000 C 
ATOM     26  N   UNL     1     -54.380  10.528  -1.679  0.00  0.00    +0.000 NA
ENDBRANCH  14  19
ENDBRANCH   1  15
TORSDOF 3
