REMARK  Name = 6i8m_ligand
REMARK  4 active torsions:
REMARK  status: ('A' for Active; 'I' for Inactive)
REMARK    1  A    between atoms: C_3  and  C_20
REMARK    2  A    between atoms: C_5  and  C_13
REMARK    3  A    between atoms: C_6  and  N_8
REMARK    4  A    between atoms: C_18  and  N_23
REMARK                            x       y       z     vdW  Elec       q    Type
REMARK                         _______ _______ _______ _____ _____    ______ ____
ROOT
ATOM      1  C   UNL     1       9.251  22.942  20.952  0.00  0.00    +0.000 C 
ATOM      2  C   UNL     1      10.095  22.841  21.976  0.00  0.00    +0.000 A 
ATOM      3  C   UNL     1       7.982  22.045  22.570  0.00  0.00    +0.000 C 
ATOM      4  C   UNL     1       9.335  22.270  22.979  0.00  0.00    +0.000 A 
ATOM      5  C   UNL     1      11.449  23.176  22.167  0.00  0.00    +0.000 A 
ATOM      6  N   UNL     1       7.986  22.518  21.202  0.00  0.00    +0.000 N 
ATOM      7  O   UNL     1       9.570  23.438  19.876  0.00  0.00    +0.000 OA
ATOM      8  C   UNL     1       9.881  22.028  24.193  0.00  0.00    +0.000 A 
ATOM      9  C   UNL     1       7.555  20.574  22.737  0.00  0.00    +0.000 C 
ATOM     10  C   UNL     1      11.997  22.916  23.470  0.00  0.00    +0.000 A 
ATOM     11  C   UNL     1      11.214  22.343  24.484  0.00  0.00    +0.000 A 
ENDROOT
BRANCH   6  12
ATOM     12  C   UNL     1       6.970  22.700  20.099  0.00  0.00    +0.000 C 
ATOM     13  C   UNL     1       5.634  23.284  20.576  0.00  0.00    +0.000 C 
ATOM     14  C   UNL     1       6.808  21.450  19.225  0.00  0.00    +0.000 C 
ATOM     15  C   UNL     1       4.713  23.539  19.405  0.00  0.00    +0.000 C 
ATOM     16  C   UNL     1       5.806  21.696  18.101  0.00  0.00    +0.000 C 
ATOM     17  N   UNL     1       4.566  22.292  18.628  0.00  0.00    +0.000 N 
ATOM     18  H   UNL     1       4.265  21.683  19.388  0.00  0.00    +0.000 HD
BRANCH  17  23
ATOM     19  C   UNL     1       3.408  23.468  16.757  0.00  0.00    +0.000 C 
ATOM     20  C   UNL     1       2.336  23.239  15.677  0.00  0.00    +0.000 C 
ATOM     21  C   UNL     1       0.893  22.048  17.310  0.00  0.00    +0.000 C 
ATOM     22  C   UNL     1       0.932  23.263  16.352  0.00  0.00    +0.000 C 
ATOM     23  C   UNL     1       3.468  22.233  17.642  0.00  0.00    +0.000 C 
ATOM     24  C   UNL     1       2.116  22.003  18.311  0.00  0.00    +0.000 C 
ENDBRANCH  17  23
ENDBRANCH   6  12
BRANCH   5  25
ATOM     25  C   UNL     1      12.422  23.738  21.230  0.00  0.00    +0.000 C 
ATOM     26  O   UNL     1      13.655  23.772  21.532  0.00  0.00    +0.000 OA
ATOM     27  N   UNL     1      12.002  24.141  19.997  0.00  0.00    +0.000 N 
ATOM     28  H   UNL     1      12.680  24.472  19.311  0.00  0.00    +0.000 HD
ATOM     29  H   UNL     1      11.010  24.111  19.761  0.00  0.00    +0.000 HD
ENDBRANCH   5  25
TORSDOF 3
