REMARK  Name = 6dql_ligand
REMARK  45 active torsions:
REMARK  status: ('A' for Active; 'I' for Inactive)
REMARK    1  A    between atoms: N_1  and  CA_2
REMARK    2  A    between atoms: CA_2  and  C_3
REMARK    3  A    between atoms: CA_2  and  CB_5
REMARK    4  A    between atoms: CB_5  and  CG_6
REMARK    5  A    between atoms: CG_6  and  SD_7
REMARK    6  A    between atoms: SD_7  and  CE_8
REMARK    7  A    between atoms: N_9  and  CA_10
REMARK    8  A    between atoms: CA_10  and  C_11
REMARK    9  A    between atoms: CA_10  and  CB_13
REMARK   10  A    between atoms: CB_13  and  CG_14
REMARK   11  A    between atoms: N_23  and  CA_24
REMARK   12  A    between atoms: CA_24  and  C_25
REMARK   13  A    between atoms: CA_24  and  CB_27
REMARK   14  A    between atoms: CB_27  and  CG_28
REMARK   15  A    between atoms: CG_28  and  CD1_29
REMARK   16  A    between atoms: CG_28  and  CD2_30
REMARK   17  A    between atoms: N_31  and  CA_32
REMARK   18  A    between atoms: CA_32  and  C_33
REMARK   19  A    between atoms: CA_32  and  CB_35
REMARK   20  A    between atoms: CB_35  and  CG_36
REMARK   21  A    between atoms: CG_36  and  CD1_37
REMARK   22  A    between atoms: CG_36  and  CD2_38
REMARK   23  A    between atoms: N_39  and  CA_40
REMARK   24  A    between atoms: CA_40  and  C_41
REMARK   25  A    between atoms: CA_40  and  CB_43
REMARK   26  A    between atoms: CB_43  and  CG_44
REMARK   27  A    between atoms: CG_44  and  CD1_45
REMARK   28  A    between atoms: CG_44  and  CD2_46
REMARK   29  A    between atoms: N_47  and  CA_48
REMARK   30  A    between atoms: CA_48  and  C_49
REMARK   31  A    between atoms: CA_48  and  CB_51
REMARK   32  A    between atoms: CB_51  and  CG_52
REMARK   33  A    between atoms: CG_52  and  CD1_53
REMARK   34  A    between atoms: CG_52  and  CD2_54
REMARK   35  A    between atoms: N_55  and  CA_56
REMARK   36  A    between atoms: CA_56  and  C_57
REMARK   37  A    between atoms: CA_56  and  CB_59
REMARK   38  A    between atoms: CB_59  and  CG_60
REMARK   39  A    between atoms: N_66  and  CA_67
REMARK   40  A    between atoms: CA_67  and  C_68
REMARK   41  A    between atoms: CA_67  and  CB_70
REMARK   42  A    between atoms: C_68  and  O_69
REMARK   43  A    between atoms: CB_70  and  CG_71
REMARK   44  A    between atoms: CG_71  and  CD1_72
REMARK   45  A    between atoms: CG_71  and  CD2_73
REMARK                            x       y       z     vdW  Elec       q    Type
REMARK                         _______ _______ _______ _____ _____    ______ ____
ROOT
ATOM      1  C   LEU A   4       6.991 -31.250  20.736  0.00  0.00    +0.000 C 
ATOM      2  O   LEU A   4       5.915 -31.115  20.151  0.00  0.00    +0.000 OA
ATOM      3  N   LEU A   5       7.639 -30.247  21.339  0.00  0.00    +0.000 N 
ATOM      4  H   LEU A   5       8.524 -30.448  21.804  0.00  0.00    +0.000 HD
ENDROOT
BRANCH   1   5
ATOM      5  CA  LEU A   4       7.662 -32.607  20.797  0.00  0.00    +0.000 C 
BRANCH   5   8
ATOM      6  C   LEU A   3       6.560 -34.792  20.445  0.00  0.00    +0.000 C 
ATOM      7  O   LEU A   3       6.911 -35.223  21.549  0.00  0.00    +0.000 OA
ATOM      8  N   LEU A   4       6.870 -33.568  20.008  0.00  0.00    +0.000 N 
ATOM      9  H   LEU A   4       6.543 -33.285  19.084  0.00  0.00    +0.000 HD
BRANCH   6  10
ATOM     10  CA  LEU A   3       5.703 -35.650  19.490  0.00  0.00    +0.000 C 
BRANCH  10  13
ATOM     11  C   TRP A   2       6.267 -35.407  17.090  0.00  0.00    +0.000 C 
ATOM     12  O   TRP A   2       5.566 -34.400  16.971  0.00  0.00    +0.000 OA
ATOM     13  N   LEU A   3       6.386 -36.076  18.241  0.00  0.00    +0.000 N 
ATOM     14  H   LEU A   3       6.969 -36.913  18.263  0.00  0.00    +0.000 HD
BRANCH  11  15
ATOM     15  CA  TRP A   2       7.051 -35.941  15.877  0.00  0.00    +0.000 C 
BRANCH  15  18
ATOM     16  C   MET A   1       5.197 -36.214  14.298  0.00  0.00    +0.000 C 
ATOM     17  O   MET A   1       4.805 -37.267  14.814  0.00  0.00    +0.000 OA
ATOM     18  N   TRP A   2       6.277 -35.546  14.701  0.00  0.00    +0.000 N 
ATOM     19  H   TRP A   2       6.575 -34.728  14.169  0.00  0.00    +0.000 HD
BRANCH  16  20
ATOM     20  CA  MET A   1       4.473 -35.597  13.114  0.00  0.00    +0.000 C 
BRANCH  20  21
ATOM     21  N   MET A   1       5.301 -35.808  11.896  0.00  0.00    +0.000 N 
ATOM     22  H1  MET A   1       6.225 -35.401  12.040  0.00  0.00    +0.000 HD
ATOM     23  H2  MET A   1       5.393 -36.808  11.718  0.00  0.00    +0.000 HD
ATOM     24  H3  MET A   1       4.851 -35.359  11.098  0.00  0.00    +0.000 HD
ENDBRANCH  20  21
BRANCH  20  25
ATOM     25  CB  MET A   1       3.063 -36.195  12.949  0.00  0.00    +0.000 C 
BRANCH  25  26
ATOM     26  CG  MET A   1       2.346 -35.845  11.645  0.00  0.00    +0.000 C 
BRANCH  26  27
ATOM     27  SD  MET A   1       2.836 -34.292  10.850  0.00  0.00    +0.000 S 
ATOM     28  CE  MET A   1       3.792 -34.843   9.427  0.00  0.00    +0.000 C 
ENDBRANCH  26  27
ENDBRANCH  25  26
ENDBRANCH  20  25
ENDBRANCH  16  20
ENDBRANCH  15  18
BRANCH  15  29
ATOM     29  CB  TRP A   2       8.496 -35.385  15.780  0.00  0.00    +0.000 C 
BRANCH  29  30
ATOM     30  CG  TRP A   2       9.284 -35.408  17.067  0.00  0.00    +0.000 C 
ATOM     31  CD1 TRP A   2       8.899 -34.889  18.232  0.00  0.00    +0.000 C 
ATOM     32  CD2 TRP A   2      10.597 -35.947  17.295  0.00  0.00    +0.000 C 
ATOM     33  NE1 TRP A   2       9.838 -35.085  19.195  0.00  0.00    +0.000 NA
ATOM     34  CE2 TRP A   2      10.911 -35.717  18.648  0.00  0.00    +0.000 C 
ATOM     35  CE3 TRP A   2      11.531 -36.601  16.494  0.00  0.00    +0.000 C 
ATOM     36  CZ2 TRP A   2      12.119 -36.121  19.228  0.00  0.00    +0.000 C 
ATOM     37  CZ3 TRP A   2      12.740 -37.001  17.068  0.00  0.00    +0.000 C 
ATOM     38  CH2 TRP A   2      13.018 -36.759  18.422  0.00  0.00    +0.000 C 
ENDBRANCH  29  30
ENDBRANCH  15  29
ENDBRANCH  11  15
ENDBRANCH  10  13
BRANCH  10  39
ATOM     39  CB  LEU A   3       5.144 -36.882  20.218  0.00  0.00    +0.000 C 
BRANCH  39  40
ATOM     40  CG  LEU A   3       3.815 -37.454  19.701  0.00  0.00    +0.000 C 
ATOM     41  CD1 LEU A   3       2.633 -36.853  20.449  0.00  0.00    +0.000 C 
ATOM     42  CD2 LEU A   3       3.642 -37.293  18.192  0.00  0.00    +0.000 C 
ENDBRANCH  39  40
ENDBRANCH  10  39
ENDBRANCH   6  10
ENDBRANCH   5   8
BRANCH   5  43
ATOM     43  CB  LEU A   4       9.108 -32.453  20.288  0.00  0.00    +0.000 C 
BRANCH  43  44
ATOM     44  CG  LEU A   4      10.277 -32.371  21.300  0.00  0.00    +0.000 C 
ATOM     45  CD1 LEU A   4       9.907 -31.760  22.645  0.00  0.00    +0.000 C 
ATOM     46  CD2 LEU A   4      10.949 -33.691  21.609  0.00  0.00    +0.000 C 
ENDBRANCH  43  44
ENDBRANCH   5  43
ENDBRANCH   1   5
BRANCH   3  47
ATOM     47  CA  LEU A   5       7.132 -28.869  21.361  0.00  0.00    +0.000 C 
BRANCH  47  48
ATOM     48  C   LEU A   5       7.657 -27.994  22.520  0.00  0.00    +0.000 C 
ATOM     49  O   LEU A   5       7.640 -28.409  23.679  0.00  0.00    +0.000 OA
ATOM     50  N   LEU A   6       8.111 -26.783  22.188  0.00  0.00    +0.000 N 
ATOM     51  H   LEU A   6       8.106 -26.521  21.202  0.00  0.00    +0.000 HD
BRANCH  50  52
ATOM     52  CA  LEU A   6       8.622 -25.798  23.170  0.00  0.00    +0.000 C 
BRANCH  52  53
ATOM     53  C   LEU A   6      10.053 -26.039  23.671  0.00  0.00    +0.000 C 
ATOM     54  O   LEU A   6      11.009 -25.543  23.061  0.00  0.00    +0.000 OA
ATOM     55  N   PHE A   7      10.171 -26.756  24.797  0.00  0.00    +0.000 N 
ATOM     56  H   PHE A   7       9.305 -27.070  25.235  0.00  0.00    +0.000 HD
BRANCH  55  57
ATOM     57  CA  PHE A   7      11.406 -27.128  25.453  0.00  0.00    +0.000 C 
BRANCH  57  58
ATOM     58  C   PHE A   7      12.040 -25.884  26.108  0.00  0.00    +0.000 C 
ATOM     59  O   PHE A   7      11.506 -25.368  27.099  0.00  0.00    +0.000 OA
ATOM     60  N   LEU A   8      13.167 -25.412  25.567  0.00  0.00    +0.000 N 
ATOM     61  H   LEU A   8      13.543 -25.872  24.738  0.00  0.00    +0.000 HD
BRANCH  60  62
ATOM     62  CA  LEU A   8      13.878 -24.269  26.115  0.00  0.00    +0.000 C 
BRANCH  62  63
ATOM     63  C   LEU A   8      13.133 -23.019  25.647  0.00  0.00    +0.000 C 
ATOM     64  OXT LEU A   8      13.734 -21.955  25.470  0.00  0.00    +0.000 OA
BRANCH  63  65
ATOM     65  O   LEU A   8      11.919 -23.023  25.390  0.00  0.00    +0.000 OA
ATOM     66  H   LEU A   8      11.559 -23.896  25.564  0.00  0.00    +0.000 HD
ENDBRANCH  63  65
ENDBRANCH  62  63
BRANCH  62  67
ATOM     67  CB  LEU A   8      15.330 -24.197  25.602  0.00  0.00    +0.000 C 
BRANCH  67  68
ATOM     68  CG  LEU A   8      16.328 -25.329  25.844  0.00  0.00    +0.000 C 
ATOM     69  CD1 LEU A   8      16.093 -26.458  24.880  0.00  0.00    +0.000 C 
ATOM     70  CD2 LEU A   8      17.734 -24.868  25.617  0.00  0.00    +0.000 C 
ENDBRANCH  67  68
ENDBRANCH  62  67
ENDBRANCH  60  62
ENDBRANCH  57  58
BRANCH  57  71
ATOM     71  CB  PHE A   7      12.324 -27.904  24.483  0.00  0.00    +0.000 C 
BRANCH  71  72
ATOM     72  CG  PHE A   7      13.586 -28.435  25.104  0.00  0.00    +0.000 A 
ATOM     73  CD1 PHE A   7      13.894 -28.204  26.442  0.00  0.00    +0.000 A 
ATOM     74  CD2 PHE A   7      14.516 -29.110  24.320  0.00  0.00    +0.000 A 
ATOM     75  CE1 PHE A   7      15.064 -28.663  26.971  0.00  0.00    +0.000 A 
ATOM     76  CE2 PHE A   7      15.702 -29.573  24.866  0.00  0.00    +0.000 A 
ATOM     77  CZ  PHE A   7      15.975 -29.346  26.201  0.00  0.00    +0.000 A 
ENDBRANCH  71  72
ENDBRANCH  57  71
ENDBRANCH  55  57
ENDBRANCH  52  53
BRANCH  52  78
ATOM     78  CB  LEU A   6       7.656 -25.628  24.362  0.00  0.00    +0.000 C 
BRANCH  78  79
ATOM     79  CG  LEU A   6       7.300 -26.890  25.198  0.00  0.00    +0.000 C 
ATOM     80  CD1 LEU A   6       7.238 -26.661  26.695  0.00  0.00    +0.000 C 
ATOM     81  CD2 LEU A   6       6.043 -27.557  24.740  0.00  0.00    +0.000 C 
ENDBRANCH  78  79
ENDBRANCH  52  78
ENDBRANCH  50  52
ENDBRANCH  47  48
BRANCH  47  82
ATOM     82  CB  LEU A   5       5.601 -28.868  21.361  0.00  0.00    +0.000 C 
BRANCH  82  83
ATOM     83  CG  LEU A   5       4.924 -27.563  20.935  0.00  0.00    +0.000 C 
ATOM     84  CD1 LEU A   5       5.382 -26.408  21.813  0.00  0.00    +0.000 C 
ATOM     85  CD2 LEU A   5       5.200 -27.269  19.469  0.00  0.00    +0.000 C 
ENDBRANCH  82  83
ENDBRANCH  47  82
ENDBRANCH   3  47
TORSDOF 34
