REMARK  Name = 6mo7_ligand
REMARK  9 active torsions:
REMARK  status: ('A' for Active; 'I' for Inactive)
REMARK    1  A    between atoms: C_2  and  C_7
REMARK    2  A    between atoms: C_5  and  C_11
REMARK    3  A    between atoms: C_6  and  S_8
REMARK    4  A    between atoms: S_8  and  N_12
REMARK    5  A    between atoms: N_12  and  C_13
REMARK    6  A    between atoms: C_18  and  C_23
REMARK    7  A    between atoms: C_21  and  C_22
REMARK    8  A    between atoms: C_23  and  N_24
REMARK    9  A    between atoms: C_25  and  C_27
REMARK                            x       y       z     vdW  Elec       q    Type
REMARK                         _______ _______ _______ _____ _____    ______ ____
ROOT
ATOM      1  C   UNL     1      31.820  11.063  78.956  0.00  0.00    +0.000 A 
ATOM      2  C   UNL     1      32.381  10.080  78.141  0.00  0.00    +0.000 A 
ATOM      3  C   UNL     1      33.760   9.853  78.165  0.00  0.00    +0.000 A 
ATOM      4  C   UNL     1      34.570  10.626  79.001  0.00  0.00    +0.000 A 
ATOM      5  C   UNL     1      34.025  11.618  79.838  0.00  0.00    +0.000 A 
ATOM      6  C   UNL     1      32.630  11.827  79.804  0.00  0.00    +0.000 A 
ATOM      7  C   UNL     1      34.984  12.389  80.705  0.00  0.00    +0.000 C 
ENDROOT
BRANCH   2   8
ATOM      8  C   UNL     1      31.506   9.312  77.286  0.00  0.00    +0.000 A 
ATOM      9  C   UNL     1      31.648   9.186  75.925  0.00  0.00    +0.000 A 
ATOM     10  O   UNL     1      30.639   8.398  75.452  0.00  0.00    +0.000 OA
ATOM     11  N   UNL     1      29.820   8.003  76.520  0.00  0.00    +0.000 NA
ATOM     12  C   UNL     1      30.351   8.560  77.612  0.00  0.00    +0.000 A 
ATOM     13  C   UNL     1      29.750   8.376  78.957  0.00  0.00    +0.000 C 
BRANCH   9  14
ATOM     14  C   UNL     1      32.636   9.684  74.936  0.00  0.00    +0.000 C 
BRANCH  14  15
ATOM     15  N   UNL     1      33.617   8.630  74.665  0.00  0.00    +0.000 N 
ATOM     16  C   UNL     1      33.386   7.641  73.714  0.00  0.00    +0.000 C 
ATOM     17  O   UNL     1      32.373   7.554  73.031  0.00  0.00    +0.000 OA
ATOM     18  C   UNL     1      34.507   6.644  73.552  0.00  0.00    +0.000 C 
ATOM     19  H   UNL     1      34.493   8.621  75.188  0.00  0.00    +0.000 HD
ENDBRANCH  14  15
ENDBRANCH   9  14
ENDBRANCH   2   8
BRANCH   6  20
ATOM     20  S   UNL     1      31.787  13.034  80.821  0.00  0.00    +0.000 S 
ATOM     21  O   UNL     1      32.159  12.734  82.188  0.00  0.00    +0.000 OA
ATOM     22  O   UNL     1      30.388  13.018  80.429  0.00  0.00    +0.000 OA
BRANCH  20  23
ATOM     23  N   UNL     1      32.465  14.498  80.311  0.00  0.00    +0.000 NA
ATOM     24  H   UNL     1      33.246  14.903  80.827  0.00  0.00    +0.000 HD
BRANCH  23  25
ATOM     25  C   UNL     1      31.932  15.190  79.123  0.00  0.00    +0.000 C 
ATOM     26  C   UNL     1      31.197  16.442  79.597  0.00  0.00    +0.000 C 
ATOM     27  C   UNL     1      32.353  17.357  79.987  0.00  0.00    +0.000 C 
ATOM     28  C   UNL     1      33.444  17.083  78.958  0.00  0.00    +0.000 C 
ATOM     29  C   UNL     1      33.091  15.748  78.306  0.00  0.00    +0.000 C 
ENDBRANCH  23  25
ENDBRANCH  20  23
ENDBRANCH   6  20
TORSDOF 6
