REMARK  Name = 6ggd_ligand
REMARK  6 active torsions:
REMARK  status: ('A' for Active; 'I' for Inactive)
REMARK    1  A    between atoms: N_1  and  C_9
REMARK    2  A    between atoms: N_2  and  C_22
REMARK    3  A    between atoms: N_2  and  C_23
REMARK    4  A    between atoms: C_8  and  C_22
REMARK    5  A    between atoms: C_9  and  C_18
REMARK    6  A    between atoms: C_10  and  C_14
REMARK                            x       y       z     vdW  Elec       q    Type
REMARK                         _______ _______ _______ _____ _____    ______ ____
ROOT
ATOM      1  N   UNL     1      91.465  94.315 -42.534  0.00  0.00    +0.000 N 
ATOM      2  C   UNL     1      91.181  93.247 -44.793  0.00  0.00    +0.000 A 
ATOM      3  C   UNL     1      91.212  94.313 -43.888  0.00  0.00    +0.000 A 
ATOM      4  C   UNL     1      90.970  95.633 -44.263  0.00  0.00    +0.000 A 
ATOM      5  C   UNL     1      91.400  95.602 -42.025  0.00  0.00    +0.000 A 
ATOM      6  C   UNL     1      91.088  96.444 -43.096  0.00  0.00    +0.000 A 
ATOM      7  C   UNL     1      91.138  98.338 -41.574  0.00  0.00    +0.000 A 
ATOM      8  C   UNL     1      90.680  95.911 -45.610  0.00  0.00    +0.000 A 
ATOM      9  C   UNL     1      90.638  94.847 -46.528  0.00  0.00    +0.000 A 
ATOM     10  C   UNL     1      90.878  93.521 -46.134  0.00  0.00    +0.000 A 
ATOM     11  C   UNL     1      90.962  97.826 -42.868  0.00  0.00    +0.000 A 
ATOM     12  C   UNL     1      91.461  97.469 -40.519  0.00  0.00    +0.000 A 
ATOM     13  C   UNL     1      91.590  96.091 -40.721  0.00  0.00    +0.000 A 
ENDROOT
BRANCH  10  14
ATOM     14  C   UNL     1      90.856  92.425 -47.081  0.00  0.00    +0.000 A 
ATOM     15  C   UNL     1      90.448  92.357 -48.428  0.00  0.00    +0.000 A 
ATOM     16  C   UNL     1      91.308  91.152 -46.817  0.00  0.00    +0.000 A 
ATOM     17  O   UNL     1      91.165  90.375 -47.923  0.00  0.00    +0.000 OA
ATOM     18  N   UNL     1      90.621  91.140 -48.949  0.00  0.00    +0.000 NA
ENDBRANCH  10  14
BRANCH   1  19
ATOM     19  C   UNL     1      91.774  93.109 -41.782  0.00  0.00    +0.000 C 
ATOM     20  C   UNL     1      93.276  92.905 -41.673  0.00  0.00    +0.000 C 
ENDBRANCH   1  19
BRANCH   7  21
ATOM     21  C   UNL     1      91.010  99.817 -41.354  0.00  0.00    +0.000 C 
BRANCH  21  22
ATOM     22  N   UNL     1      89.638 100.270 -40.993  0.00  0.00    +0.000 N 
ATOM     23  C   UNL     1      89.587 101.709 -40.627  0.00  0.00    +0.000 C 
ATOM     24  H   UNL     1      89.333  99.730 -40.183  0.00  0.00    +0.000 HD
ATOM     25  H   UNL     1      89.038 100.132 -41.807  0.00  0.00    +0.000 HD
ENDBRANCH  21  22
ENDBRANCH   7  21
TORSDOF 4
