REMARK  Name = 6qr7_ligand
REMARK  6 active torsions:
REMARK  status: ('A' for Active; 'I' for Inactive)
REMARK    1  A    between atoms: C_3  and  N_21
REMARK    2  A    between atoms: C_3  and  C_22
REMARK    3  A    between atoms: C_5  and  C_24
REMARK    4  A    between atoms: C_5  and  N_25
REMARK    5  A    between atoms: C_14  and  C_15
REMARK    6  A    between atoms: C_29  and  C_30
REMARK                            x       y       z     vdW  Elec       q    Type
REMARK                         _______ _______ _______ _____ _____    ______ ____
ROOT
ATOM      1  C   UNL     1     -24.398 -18.860  11.501  0.00  0.00    +0.000 A 
ATOM      2  C   UNL     1     -25.345 -22.357  10.665  0.00  0.00    +0.000 A 
ATOM      3  C   UNL     1     -22.081 -19.342  12.044  0.00  0.00    +0.000 A 
ATOM      4  C   UNL     1     -22.286 -20.685  11.732  0.00  0.00    +0.000 A 
ATOM      5  C   UNL     1     -23.580 -21.120  11.330  0.00  0.00    +0.000 A 
ATOM      6  C   UNL     1     -24.616 -20.222  11.212  0.00  0.00    +0.000 A 
ATOM      7  C   UNL     1     -23.117 -18.422  11.903  0.00  0.00    +0.000 A 
ATOM      8  C   UNL     1     -25.769 -21.018  10.782  0.00  0.00    +0.000 A 
ATOM      9  N   UNL     1     -24.046 -22.399  10.977  0.00  0.00    +0.000 N 
ENDROOT
BRANCH   3  14
ATOM     10  N   UNL     1     -17.809 -16.844  12.990  0.00  0.00    +0.000 N 
ATOM     11  C   UNL     1     -18.719 -17.834  12.741  0.00  0.00    +0.000 C 
ATOM     12  N   UNL     1     -18.457 -19.170  12.636  0.00  0.00    +0.000 NA
ATOM     13  N   UNL     1     -19.629 -19.797  12.404  0.00  0.00    +0.000 NA
ATOM     14  C   UNL     1     -20.645 -18.922  12.389  0.00  0.00    +0.000 C 
ATOM     15  C   UNL     1     -20.096 -17.666  12.564  0.00  0.00    +0.000 C 
ATOM     16  H   UNL     1     -16.824 -17.077  13.117  0.00  0.00    +0.000 HD
ATOM     17  H   UNL     1     -18.115 -15.873  13.048  0.00  0.00    +0.000 HD
BRANCH  15  18
ATOM     18  C   UNL     1     -20.798 -16.264  12.626  0.00  0.00    +0.000 C 
ATOM     19  N   UNL     1     -21.269 -15.200  12.677  0.00  0.00    +0.000 NA
ENDBRANCH  15  18
ENDBRANCH   3  14
BRANCH   9  20
ATOM     20  C   UNL     1     -23.207 -23.617  11.013  0.00  0.00    +0.000 C 
BRANCH  20  23
ATOM     21  C   UNL     1     -22.855 -23.475   8.486  0.00  0.00    +0.000 A 
ATOM     22  C   UNL     1     -21.137 -24.453   9.878  0.00  0.00    +0.000 A 
ATOM     23  C   UNL     1     -22.389 -23.839   9.745  0.00  0.00    +0.000 A 
ATOM     24  C   UNL     1     -22.061 -23.737   7.349  0.00  0.00    +0.000 A 
ATOM     25  C   UNL     1     -20.779 -24.356   7.489  0.00  0.00    +0.000 A 
ATOM     26  C   UNL     1     -20.335 -24.711   8.725  0.00  0.00    +0.000 A 
BRANCH  25  27
ATOM     27  C   UNL     1     -19.874 -24.655   6.229  0.00  0.00    +0.000 C 
BRANCH  27  31
ATOM     28  C   UNL     1     -19.347 -26.851   6.379  0.00  0.00    +0.000 C 
ATOM     29  C   UNL     1     -19.454 -27.984   4.215  0.00  0.00    +0.000 C 
ATOM     30  C   UNL     1     -20.547 -25.791   4.459  0.00  0.00    +0.000 C 
ATOM     31  N   UNL     1     -20.139 -25.748   5.824  0.00  0.00    +0.000 N 
ATOM     32  C   UNL     1     -18.659 -27.759   5.372  0.00  0.00    +0.000 C 
ATOM     33  C   UNL     1     -19.742 -26.714   3.560  0.00  0.00    +0.000 C 
ATOM     34  H   UNL     1     -21.022 -25.994   6.271  0.00  0.00    +0.000 HD
ENDBRANCH  27  31
ENDBRANCH  25  27
ENDBRANCH  20  23
ENDBRANCH   9  20
TORSDOF 6
