REMARK  Name = 6qln_ligand
REMARK  9 active torsions:
REMARK  status: ('A' for Active; 'I' for Inactive)
REMARK    1  A    between atoms: C_1  and  C_19
REMARK    2  A    between atoms: C_6  and  C_7
REMARK    3  A    between atoms: C_12  and  S_30
REMARK    4  A    between atoms: C_13  and  S_30
REMARK    5  A    between atoms: C_14  and  C_15
REMARK    6  A    between atoms: C_15  and  O_27
REMARK    7  A    between atoms: C_16  and  O_28
REMARK    8  A    between atoms: C_17  and  N_23
REMARK    9  A    between atoms: C_21  and  O_29
REMARK                            x       y       z     vdW  Elec       q    Type
REMARK                         _______ _______ _______ _____ _____    ______ ____
ROOT
ATOM      1  C   UNL     1     -19.724   8.774  -1.747  0.00  0.00    +0.000 C 
ATOM      2  C   UNL     1     -19.658   6.563  -0.925  0.00  0.00    +0.000 C 
ATOM      3  C   UNL     1     -18.172   6.705  -0.591  0.00  0.00    +0.000 C 
ATOM      4  C   UNL     1     -17.572   7.727  -1.563  0.00  0.00    +0.000 C 
ATOM      5  C   UNL     1     -18.259   9.090  -1.459  0.00  0.00    +0.000 C 
ATOM      6  O   UNL     1     -20.282   7.868  -0.800  0.00  0.00    +0.000 OA
ENDROOT
BRANCH   4   9
ATOM      7  C   UNL     1     -15.444   8.255  -0.268  0.00  0.00    +0.000 A 
ATOM      8  C   UNL     1     -14.111   8.193  -0.619  0.00  0.00    +0.000 A 
ATOM      9  N   UNL     1     -16.154   7.863  -1.391  0.00  0.00    +0.000 N 
ATOM     10  N   UNL     1     -14.100   7.782  -1.952  0.00  0.00    +0.000 NA
ATOM     11  N   UNL     1     -15.280   7.571  -2.390  0.00  0.00    +0.000 NA
BRANCH   8  12
ATOM     12  C   UNL     1     -12.936   8.481   0.166  0.00  0.00    +0.000 A 
ATOM     13  C   UNL     1     -12.964   8.508   1.563  0.00  0.00    +0.000 A 
ATOM     14  C   UNL     1     -11.808   8.752   2.236  0.00  0.00    +0.000 A 
ATOM     15  C   UNL     1     -10.580   8.952   1.680  0.00  0.00    +0.000 A 
ATOM     16  C   UNL     1     -11.688   8.672  -0.440  0.00  0.00    +0.000 A 
ATOM     17  C   UNL     1     -10.538   8.902   0.299  0.00  0.00    +0.000 A 
ATOM     18  F   UNL     1     -11.874   8.759   3.619  0.00  0.00    +0.000 F 
ENDBRANCH   8  12
ENDBRANCH   4   9
BRANCH   3  19
ATOM     19  O   UNL     1     -18.002   7.096   0.712  0.00  0.00    +0.000 OA
ATOM     20  H   UNL     1     -17.064   7.179   0.900  0.00  0.00    +0.000 HD
ENDBRANCH   3  19
BRANCH   5  21
ATOM     21  O   UNL     1     -17.780   9.885  -2.516  0.00  0.00    +0.000 OA
ATOM     22  H   UNL     1     -16.857  10.100  -2.361  0.00  0.00    +0.000 HD
ENDBRANCH   5  21
BRANCH   2  23
ATOM     23  C   UNL     1     -20.393   5.614   0.029  0.00  0.00    +0.000 C 
BRANCH  23  24
ATOM     24  O   UNL     1     -21.739   5.476  -0.340  0.00  0.00    +0.000 OA
ATOM     25  H   UNL     1     -22.177   4.879   0.270  0.00  0.00    +0.000 HD
ENDBRANCH  23  24
ENDBRANCH   2  23
BRANCH   1  26
ATOM     26  S   UNL     1     -20.738  10.254  -1.743  0.00  0.00    +0.000 S 
BRANCH  26  33
ATOM     27  C   UNL     1     -25.282   9.000  -5.642  0.00  0.00    +0.000 C 
ATOM     28  C   UNL     1     -24.183   9.320  -4.698  0.00  0.00    +0.000 A 
ATOM     29  C   UNL     1     -23.471   8.327  -4.046  0.00  0.00    +0.000 A 
ATOM     30  C   UNL     1     -22.445   8.610  -3.150  0.00  0.00    +0.000 A 
ATOM     31  C   UNL     1     -23.797  10.627  -4.394  0.00  0.00    +0.000 A 
ATOM     32  C   UNL     1     -22.770  10.919  -3.505  0.00  0.00    +0.000 A 
ATOM     33  C   UNL     1     -22.073   9.919  -2.858  0.00  0.00    +0.000 A 
ENDBRANCH  26  33
ENDBRANCH   1  26
TORSDOF 8
