REMARK  Name = 6n93_ligand
REMARK  28 active torsions:
REMARK  status: ('A' for Active; 'I' for Inactive)
REMARK    1  A    between atoms: C_6  and  N_7
REMARK    2  A    between atoms: N_10  and  C_11
REMARK    3  A    between atoms: C_12  and  O_13
REMARK    4  A    between atoms: C_14  and  O_15
REMARK    5  A    between atoms: O_15  and  P_21
REMARK    6  A    between atoms: C_16  and  C_18
REMARK    7  A    between atoms: C_18  and  O_19
REMARK    8  A    between atoms: O_19  and  P_24
REMARK    9  A    between atoms: O_20  and  P_21
REMARK   10  A    between atoms: P_21  and  O_23
REMARK   11  A    between atoms: P_24  and  O_26
REMARK   12  A    between atoms: P_24  and  O_27
REMARK   13  A    between atoms: O_27  and  P_28
REMARK   14  A    between atoms: P_28  and  O_30
REMARK   15  A    between atoms: P_28  and  O_31
REMARK   16  A    between atoms: O_31  and  C_32
REMARK   17  A    between atoms: C_32  and  C_33
REMARK   18  A    between atoms: C_33  and  C_34
REMARK   19  A    between atoms: C_33  and  C_35
REMARK   20  A    between atoms: C_33  and  C_36
REMARK   21  A    between atoms: C_36  and  O_37
REMARK   22  A    between atoms: C_36  and  C_38
REMARK   23  A    between atoms: N_40  and  C_41
REMARK   24  A    between atoms: C_41  and  C_42
REMARK   25  A    between atoms: C_42  and  C_43
REMARK   26  A    between atoms: N_45  and  C_46
REMARK   27  A    between atoms: C_46  and  C_47
REMARK   28  A    between atoms: C_47  and  O_48
REMARK                            x       y       z     vdW  Elec       q    Type
REMARK                         _______ _______ _______ _____ _____    ______ ____
ROOT
ATOM      1  P   UNL     1      19.148  23.334  19.479  0.00  0.00    +0.000 P 
ATOM      2  O   UNL     1      18.087  24.355  19.119  0.00  0.00    +0.000 OA
ENDROOT
BRANCH   1   3
ATOM      3  O   UNL     1      18.961  21.906  18.962  0.00  0.00    +0.000 OA
ATOM      4  H   UNL     1      19.695  21.362  19.257  0.00  0.00    +0.000 HD
ENDBRANCH   1   3
BRANCH   1   5
ATOM      5  O   UNL     1      19.043  23.343  21.101  0.00  0.00    +0.000 OA
BRANCH   5   6
ATOM      6  P   UNL     1      18.590  22.124  22.049  0.00  0.00    +0.000 P 
ATOM      7  O   UNL     1      17.273  21.559  21.658  0.00  0.00    +0.000 OA
BRANCH   6   8
ATOM      8  O   UNL     1      18.616  22.885  23.345  0.00  0.00    +0.000 OA
ATOM      9  H   UNL     1      19.506  23.207  23.508  0.00  0.00    +0.000 HD
ENDBRANCH   6   8
BRANCH   6  10
ATOM     10  O   UNL     1      19.509  20.790  22.146  0.00  0.00    +0.000 OA
BRANCH  10  11
ATOM     11  C   UNL     1      20.854  20.937  22.539  0.00  0.00    +0.000 C 
BRANCH  11  12
ATOM     12  C   UNL     1      21.600  19.677  22.164  0.00  0.00    +0.000 C 
ATOM     13  C   UNL     1      21.178  18.583  23.140  0.00  0.00    +0.000 C 
ATOM     14  C   UNL     1      23.105  19.958  22.282  0.00  0.00    +0.000 C 
BRANCH  12  15
ATOM     15  C   UNL     1      21.210  19.327  20.713  0.00  0.00    +0.000 C 
BRANCH  15  16
ATOM     16  C   UNL     1      22.079  18.280  20.191  0.00  0.00    +0.000 C 
ATOM     17  O   UNL     1      22.103  17.147  20.685  0.00  0.00    +0.000 OA
ATOM     18  N   UNL     1      22.882  18.827  19.292  0.00  0.00    +0.000 N 
ATOM     19  H   UNL     1      22.642  19.762  18.963  0.00  0.00    +0.000 HD
BRANCH  18  20
ATOM     20  C   UNL     1      24.073  18.215  18.733  0.00  0.00    +0.000 C 
BRANCH  20  21
ATOM     21  C   UNL     1      24.784  17.204  19.601  0.00  0.00    +0.000 C 
BRANCH  21  22
ATOM     22  C   UNL     1      25.774  16.436  18.744  0.00  0.00    +0.000 C 
ATOM     23  O   UNL     1      25.469  15.358  18.256  0.00  0.00    +0.000 OA
ATOM     24  N   UNL     1      26.993  16.956  18.679  0.00  0.00    +0.000 N 
ATOM     25  H   UNL     1      27.097  17.962  18.815  0.00  0.00    +0.000 HD
BRANCH  24  26
ATOM     26  C   UNL     1      28.176  16.175  18.427  0.00  0.00    +0.000 C 
BRANCH  26  27
ATOM     27  C   UNL     1      28.670  16.153  16.996  0.00  0.00    +0.000 C 
BRANCH  27  28
ATOM     28  O   UNL     1      29.534  15.028  16.728  0.00  0.00    +0.000 OA
ATOM     29  H   UNL     1      29.820  15.057  15.812  0.00  0.00    +0.000 HD
ENDBRANCH  27  28
ENDBRANCH  26  27
ENDBRANCH  24  26
ENDBRANCH  21  22
ENDBRANCH  20  21
ENDBRANCH  18  20
ENDBRANCH  15  16
BRANCH  15  30
ATOM     30  O   UNL     1      21.461  20.463  19.915  0.00  0.00    +0.000 OA
ATOM     31  H   UNL     1      21.226  20.271  19.004  0.00  0.00    +0.000 HD
ENDBRANCH  15  30
ENDBRANCH  12  15
ENDBRANCH  11  12
ENDBRANCH  10  11
ENDBRANCH   6  10
ENDBRANCH   5   6
ENDBRANCH   1   5
BRANCH   1  32
ATOM     32  O   UNL     1      20.515  24.080  19.084  0.00  0.00    +0.000 OA
BRANCH  32  33
ATOM     33  C   UNL     1      20.775  25.498  19.144  0.00  0.00    +0.000 C 
BRANCH  33  37
ATOM     34  C   UNL     1      22.906  24.374  16.803  0.00  0.00    +0.000 C 
ATOM     35  C   UNL     1      21.526  23.843  16.455  0.00  0.00    +0.000 C 
ATOM     36  C   UNL     1      20.745  25.139  16.656  0.00  0.00    +0.000 C 
ATOM     37  C   UNL     1      21.451  25.872  17.808  0.00  0.00    +0.000 C 
ATOM     38  O   UNL     1      22.835  25.415  17.832  0.00  0.00    +0.000 OA
BRANCH  34  47
ATOM     39  N   UNL     1      27.209  21.881  15.655  0.00  0.00    +0.000 NA
ATOM     40  C   UNL     1      26.629  22.933  15.037  0.00  0.00    +0.000 A 
ATOM     41  N   UNL     1      25.485  23.509  15.438  0.00  0.00    +0.000 NA
ATOM     42  C   UNL     1      24.877  22.974  16.509  0.00  0.00    +0.000 A 
ATOM     43  C   UNL     1      25.463  21.825  17.229  0.00  0.00    +0.000 A 
ATOM     44  C   UNL     1      26.682  21.303  16.730  0.00  0.00    +0.000 A 
ATOM     45  N   UNL     1      24.659  21.512  18.254  0.00  0.00    +0.000 NA
ATOM     46  C   UNL     1      23.621  22.390  18.229  0.00  0.00    +0.000 A 
ATOM     47  N   UNL     1      23.776  23.246  17.191  0.00  0.00    +0.000 N 
BRANCH  44  48
ATOM     48  N   UNL     1      27.243  20.272  17.382  0.00  0.00    +0.000 N 
ATOM     49  H   UNL     1      28.129  19.885  17.058  0.00  0.00    +0.000 HD
ATOM     50  H   UNL     1      26.783  19.876  18.202  0.00  0.00    +0.000 HD
ENDBRANCH  44  48
ENDBRANCH  34  47
BRANCH  35  51
ATOM     51  O   UNL     1      21.472  23.261  15.135  0.00  0.00    +0.000 OA
ATOM     52  H   UNL     1      20.583  22.942  14.963  0.00  0.00    +0.000 HD
ENDBRANCH  35  51
BRANCH  36  53
ATOM     53  O   UNL     1      20.771  25.848  15.426  0.00  0.00    +0.000 OA
BRANCH  53  54
ATOM     54  P   UNL     1      19.536  26.792  14.902  0.00  0.00    +0.000 P 
ATOM     55  O   UNL     1      20.132  27.234  13.616  0.00  0.00    +0.000 OA
BRANCH  54  56
ATOM     56  O   UNL     1      18.363  25.857  14.718  0.00  0.00    +0.000 OA
ATOM     57  H   UNL     1      18.019  25.604  15.578  0.00  0.00    +0.000 HD
ENDBRANCH  54  56
BRANCH  54  58
ATOM     58  O   UNL     1      19.417  27.911  15.907  0.00  0.00    +0.000 OA
ATOM     59  H   UNL     1      19.027  27.573  16.716  0.00  0.00    +0.000 HD
ENDBRANCH  54  58
ENDBRANCH  53  54
ENDBRANCH  36  53
ENDBRANCH  33  37
ENDBRANCH  32  33
ENDBRANCH   1  32
TORSDOF 26
