REMARK  Name = 6oio_ligand
REMARK  5 active torsions:
REMARK  status: ('A' for Active; 'I' for Inactive)
REMARK    1  A    between atoms: C_1  and  C_2
REMARK    2  A    between atoms: C_3  and  C_8
REMARK    3  A    between atoms: N_15  and  N_16
REMARK    4  A    between atoms: N_16  and  S_17
REMARK    5  A    between atoms: S_17  and  C_20
REMARK                            x       y       z     vdW  Elec       q    Type
REMARK                         _______ _______ _______ _____ _____    ______ ____
ROOT
ATOM      1  C   UNL     1       5.186  10.785  17.855  0.00  0.00    +0.000 C 
ATOM      2  O   UNL     1       5.420  10.085  16.896  0.00  0.00    +0.000 OA
ATOM      3  N   UNL     1       4.100  10.581  18.623  0.00  0.00    +0.000 N 
ATOM      4  H   UNL     1       3.946  11.154  19.453  0.00  0.00    +0.000 HD
ENDROOT
BRANCH   1   5
ATOM      5  C   UNL     1       6.000  11.863  18.196  0.00  0.00    +0.000 A 
ATOM      6  C   UNL     1       7.262  13.820  17.546  0.00  0.00    +0.000 A 
ATOM      7  C   UNL     1       6.458  12.718  17.215  0.00  0.00    +0.000 A 
ATOM      8  C   UNL     1       6.202  12.123  19.591  0.00  0.00    +0.000 A 
ATOM      9  C   UNL     1       7.024  13.220  19.935  0.00  0.00    +0.000 A 
ATOM     10  C   UNL     1       7.576  14.062  18.930  0.00  0.00    +0.000 A 
BRANCH   6  11
ATOM     11  C   UNL     1       7.749  14.702  16.540  0.00  0.00    +0.000 A 
ATOM     12  C   UNL     1       8.802  16.544  14.550  0.00  0.00    +0.000 A 
ATOM     13  C   UNL     1       8.647  15.150  14.257  0.00  0.00    +0.000 A 
ATOM     14  C   UNL     1       8.146  14.270  15.269  0.00  0.00    +0.000 A 
ATOM     15  C   UNL     1       8.375  16.931  15.832  0.00  0.00    +0.000 A 
ATOM     16  C   UNL     1       7.933  16.036  16.838  0.00  0.00    +0.000 A 
ENDBRANCH   6  11
ENDBRANCH   1   5
BRANCH   3  17
ATOM     17  N   UNL     1       3.083   9.472  18.243  0.00  0.00    +0.000 NA
ATOM     18  H   UNL     1       2.406   9.558  17.485  0.00  0.00    +0.000 HD
BRANCH  17  19
ATOM     19  S   UNL     1       3.234   8.014  19.295  0.00  0.00    +0.000 S 
ATOM     20  O   UNL     1       2.419   6.918  18.818  0.00  0.00    +0.000 OA
ATOM     21  O   UNL     1       4.668   7.590  19.653  0.00  0.00    +0.000 OA
BRANCH  19  22
ATOM     22  C   UNL     1       2.583   8.460  20.964  0.00  0.00    +0.000 A 
ATOM     23  C   UNL     1       3.219   9.463  21.710  0.00  0.00    +0.000 A 
ATOM     24  C   UNL     1       2.703   9.700  23.016  0.00  0.00    +0.000 A 
ATOM     25  C   UNL     1       1.517   9.047  23.382  0.00  0.00    +0.000 A 
ATOM     26  C   UNL     1       0.893   8.089  22.573  0.00  0.00    +0.000 A 
ATOM     27  C   UNL     1       1.468   7.767  21.310  0.00  0.00    +0.000 A 
ENDBRANCH  19  22
ENDBRANCH  17  19
ENDBRANCH   3  17
TORSDOF 5
