REMARK  Name = 6i63_ligand
REMARK  6 active torsions:
REMARK  status: ('A' for Active; 'I' for Inactive)
REMARK    1  A    between atoms: O_1  and  C_2
REMARK    2  A    between atoms: C_7  and  C_8
REMARK    3  A    between atoms: C_8  and  C_9
REMARK    4  A    between atoms: C_8  and  C_10
REMARK    5  A    between atoms: C_8  and  C_11
REMARK    6  A    between atoms: C_16  and  O_17
REMARK                            x       y       z     vdW  Elec       q    Type
REMARK                         _______ _______ _______ _____ _____    ______ ____
ROOT
ATOM      1  C   UNL     1      16.000   3.388 -28.095  0.00  0.00    +0.000 C 
ATOM      2  C   UNL     1      17.342   2.871 -27.560  0.00  0.00    +0.000 C 
ATOM      3  C   UNL     1      14.846   2.579 -27.489  0.00  0.00    +0.000 C 
ENDROOT
BRANCH   1   9
ATOM      4  C   UNL     1      15.986   3.098 -32.390  0.00  0.00    +0.000 A 
ATOM      5  C   UNL     1      14.915   2.597 -31.652  0.00  0.00    +0.000 A 
ATOM      6  C   UNL     1      14.905   2.684 -30.260  0.00  0.00    +0.000 A 
ATOM      7  C   UNL     1      17.057   3.692 -31.729  0.00  0.00    +0.000 A 
ATOM      8  C   UNL     1      17.053   3.780 -30.340  0.00  0.00    +0.000 A 
ATOM      9  C   UNL     1      15.979   3.279 -29.612  0.00  0.00    +0.000 A 
BRANCH   4  10
ATOM     10  O   UNL     1      15.985   3.004 -33.755  0.00  0.00    +0.000 OA
ATOM     11  H   UNL     1      16.790   3.395 -34.102  0.00  0.00    +0.000 HD
ENDBRANCH   4  10
ENDBRANCH   1   9
BRANCH   1  12
ATOM     12  C   UNL     1      15.761   4.850 -27.718  0.00  0.00    +0.000 A 
ATOM     13  C   UNL     1      16.620   5.520 -26.843  0.00  0.00    +0.000 A 
ATOM     14  C   UNL     1      16.359   6.841 -26.496  0.00  0.00    +0.000 A 
ATOM     15  C   UNL     1      14.645   5.493 -28.252  0.00  0.00    +0.000 A 
ATOM     16  C   UNL     1      14.385   6.805 -27.909  0.00  0.00    +0.000 A 
ATOM     17  C   UNL     1      15.239   7.477 -27.033  0.00  0.00    +0.000 A 
BRANCH  17  18
ATOM     18  O   UNL     1      14.979   8.772 -26.702  0.00  0.00    +0.000 OA
ATOM     19  H   UNL     1      14.181   9.062 -27.150  0.00  0.00    +0.000 HD
ENDBRANCH  17  18
ENDBRANCH   1  12
TORSDOF 4
