REMARK  Name = 6h13_ligand
REMARK  11 active torsions:
REMARK  status: ('A' for Active; 'I' for Inactive)
REMARK    1  A    between atoms: C_7  and  N_40
REMARK    2  A    between atoms: C_14  and  C_15
REMARK    3  A    between atoms: C_14  and  N_40
REMARK    4  A    between atoms: C_15  and  N_41
REMARK    5  A    between atoms: C_16  and  C_18
REMARK    6  A    between atoms: C_18  and  N_48
REMARK    7  A    between atoms: C_19  and  C_20
REMARK    8  A    between atoms: C_19  and  N_48
REMARK    9  A    between atoms: C_23  and  N_45
REMARK   10  A    between atoms: C_26  and  N_46
REMARK   11  A    between atoms: C_38  and  N_48
REMARK                            x       y       z     vdW  Elec       q    Type
REMARK                         _______ _______ _______ _____ _____    ______ ____
ROOT
ATOM      1  C   UNL     1     -37.491 157.492  79.971  0.00  0.00    +0.000 C 
ENDROOT
BRANCH   1   2
ATOM      2  C   UNL     1     -36.880 156.233  80.157  0.00  0.00    +0.000 A 
ATOM      3  C   UNL     1     -36.152 155.925  81.311  0.00  0.00    +0.000 A 
ATOM      4  C   UNL     1     -35.542 154.671  81.419  0.00  0.00    +0.000 A 
ATOM      5  C   UNL     1     -36.348 154.046  79.253  0.00  0.00    +0.000 A 
ATOM      6  C   UNL     1     -36.925 155.289  79.147  0.00  0.00    +0.000 A 
ATOM      7  N   UNL     1     -35.650 153.736  80.363  0.00  0.00    +0.000 NA
BRANCH   5   9
ATOM      8  C   UNL     1     -35.628 152.255  77.997  0.00  0.00    +0.000 C 
ATOM      9  N   UNL     1     -36.492 153.258  78.184  0.00  0.00    +0.000 N 
ATOM     10  N   UNL     1     -34.722 152.099  79.023  0.00  0.00    +0.000 N 
ATOM     11  O   UNL     1     -35.738 151.595  76.963  0.00  0.00    +0.000 OA
ATOM     12  H   UNL     1     -37.250 153.419  77.520  0.00  0.00    +0.000 HD
ATOM     13  H   UNL     1     -34.882 152.759  79.784  0.00  0.00    +0.000 HD
BRANCH  10  14
ATOM     14  C   UNL     1     -33.653 151.268  79.269  0.00  0.00    +0.000 A 
ATOM     15  C   UNL     1     -33.313 150.151  78.566  0.00  0.00    +0.000 A 
ATOM     16  C   UNL     1     -32.216 149.448  78.948  0.00  0.00    +0.000 A 
ATOM     17  C   UNL     1     -31.463 149.812  79.995  0.00  0.00    +0.000 A 
ATOM     18  C   UNL     1     -31.765 150.930  80.752  0.00  0.00    +0.000 A 
ATOM     19  C   UNL     1     -32.879 151.654  80.372  0.00  0.00    +0.000 A 
ATOM     20  C   UNL     1     -32.043 148.406  78.122  0.00  0.00    +0.000 C 
ATOM     21  C   UNL     1     -33.838 149.477  77.433  0.00  0.00    +0.000 C 
ATOM     22  C   UNL     1     -35.167 148.821  77.727  0.00  0.00    +0.000 C 
ATOM     23  C   UNL     1     -35.627 148.058  76.470  0.00  0.00    +0.000 C 
ATOM     24  C   UNL     1     -34.676 146.906  76.134  0.00  0.00    +0.000 C 
ATOM     25  C   UNL     1     -33.237 147.441  76.017  0.00  0.00    +0.000 C 
ATOM     26  N   UNL     1     -32.946 148.377  77.151  0.00  0.00    +0.000 N 
ATOM     27  O   UNL     1     -31.113 147.606  78.218  0.00  0.00    +0.000 OA
ENDBRANCH  10  14
ENDBRANCH   5   9
ENDBRANCH   1   2
BRANCH   1  29
ATOM     28  C   UNL     1     -39.515 156.873  78.456  0.00  0.00    +0.000 C 
ATOM     29  N   UNL     1     -38.931 157.600  79.598  0.00  0.00    +0.000 N 
ATOM     30  H   UNL     1     -39.394 157.153  80.389  0.00  0.00    +0.000 HD
BRANCH  29  31
ATOM     31  C   UNL     1     -39.151 159.022  79.317  0.00  0.00    +0.000 C 
BRANCH  31  32
ATOM     32  C   UNL     1     -39.977 159.542  80.469  0.00  0.00    +0.000 A 
ATOM     33  C   UNL     1     -39.496 159.905  81.645  0.00  0.00    +0.000 A 
ATOM     34  N   UNL     1     -40.583 160.253  82.328  0.00  0.00    +0.000 N 
ATOM     35  N   UNL     1     -41.621 160.079  81.580  0.00  0.00    +0.000 NA
ATOM     36  N   UNL     1     -41.296 159.650  80.465  0.00  0.00    +0.000 NA
BRANCH  34  37
ATOM     37  C   UNL     1     -40.627 160.740  83.719  0.00  0.00    +0.000 C 
BRANCH  37  38
ATOM     38  C   UNL     1     -40.642 162.252  83.763  0.00  0.00    +0.000 C 
BRANCH  38  39
ATOM     39  N   UNL     1     -42.024 162.776  83.851  0.00  0.00    +0.000 N 
ATOM     40  H   UNL     1     -42.584 162.427  84.629  0.00  0.00    +0.000 HD
BRANCH  39  47
ATOM     41  C   UNL     1     -44.692 162.463  83.549  0.00  0.00    +0.000 A 
ATOM     42  C   UNL     1     -46.193 162.736  83.665  0.00  0.00    +0.000 A 
ATOM     43  C   UNL     1     -46.721 163.013  82.273  0.00  0.00    +0.000 A 
ATOM     44  C   UNL     1     -46.119 164.330  81.824  0.00  0.00    +0.000 A 
ATOM     45  C   UNL     1     -44.721 164.392  82.042  0.00  0.00    +0.000 A 
ATOM     46  C   UNL     1     -44.029 163.508  82.883  0.00  0.00    +0.000 A 
ATOM     47  C   UNL     1     -42.640 163.661  83.028  0.00  0.00    +0.000 A 
ATOM     48  C   UNL     1     -41.957 164.706  82.370  0.00  0.00    +0.000 A 
ATOM     49  C   UNL     1     -42.719 165.551  81.564  0.00  0.00    +0.000 A 
ATOM     50  C   UNL     1     -42.115 166.600  80.873  0.00  0.00    +0.000 A 
ATOM     51  C   UNL     1     -40.745 166.832  80.971  0.00  0.00    +0.000 A 
ATOM     52  C   UNL     1     -39.966 166.007  81.772  0.00  0.00    +0.000 A 
ATOM     53  C   UNL     1     -40.582 164.969  82.461  0.00  0.00    +0.000 A 
ATOM     54  N   UNL     1     -44.040 165.375  81.429  0.00  0.00    +0.000 NA
ENDBRANCH  39  47
ENDBRANCH  38  39
ENDBRANCH  37  38
ENDBRANCH  34  37
ENDBRANCH  31  32
ENDBRANCH  29  31
ENDBRANCH   1  29
TORSDOF 10
