REMARK  Name = 6g2o_ligand
REMARK  7 active torsions:
REMARK  status: ('A' for Active; 'I' for Inactive)
REMARK    1  A    between atoms: C_1  and  C_4
REMARK    2  A    between atoms: C_3  and  C_17
REMARK    3  A    between atoms: C_4  and  N_26
REMARK    4  A    between atoms: C_5  and  C_13
REMARK    5  A    between atoms: C_6  and  C_15
REMARK    6  A    between atoms: C_7  and  N_27
REMARK    7  A    between atoms: C_18  and  C_21
REMARK                            x       y       z     vdW  Elec       q    Type
REMARK                         _______ _______ _______ _____ _____    ______ ____
ROOT
ATOM      1  C   UNL     1      -4.122   6.710 -20.263  0.00  0.00    +0.000 A 
ATOM      2  C   UNL     1      -3.417   7.376 -19.286  0.00  0.00    +0.000 A 
ATOM      3  C   UNL     1      -2.726   6.687 -16.886  0.00  0.00    +0.000 C 
ATOM      4  C   UNL     1      -4.012   5.365 -18.583  0.00  0.00    +0.000 A 
ATOM      5  N   UNL     1      -4.475   5.443 -19.812  0.00  0.00    +0.000 NA
ATOM      6  N   UNL     1      -3.346   6.474 -18.192  0.00  0.00    +0.000 N 
ENDROOT
BRANCH   2  12
ATOM      7  C   UNL     1      -3.182  11.094 -19.191  0.00  0.00    +0.000 A 
ATOM      8  C   UNL     1      -1.006  10.330 -19.144  0.00  0.00    +0.000 A 
ATOM      9  C   UNL     1      -1.427   8.971 -19.188  0.00  0.00    +0.000 A 
ATOM     10  C   UNL     1      -0.433   7.953 -19.190  0.00  0.00    +0.000 A 
ATOM     11  C   UNL     1       1.267   9.595 -19.073  0.00  0.00    +0.000 A 
ATOM     12  C   UNL     1      -2.840   8.737 -19.263  0.00  0.00    +0.000 A 
ATOM     13  C   UNL     1      -3.701   9.812 -19.281  0.00  0.00    +0.000 A 
ATOM     14  C   UNL     1       0.893   8.266 -19.097  0.00  0.00    +0.000 A 
ATOM     15  C   UNL     1       0.377  10.623 -19.086  0.00  0.00    +0.000 A 
ATOM     16  F   UNL     1       2.594   9.879 -18.958  0.00  0.00    +0.000 F 
ATOM     17  N   UNL     1      -1.890  11.384 -19.150  0.00  0.00    +0.000 NA
ENDBRANCH   2  12
BRANCH   1  21
ATOM     18  C   UNL     1      -5.268   7.893 -24.228  0.00  0.00    +0.000 A 
ATOM     19  C   UNL     1      -6.219   7.709 -23.233  0.00  0.00    +0.000 A 
ATOM     20  C   UNL     1      -5.875   7.350 -21.933  0.00  0.00    +0.000 A 
ATOM     21  C   UNL     1      -4.513   7.140 -21.630  0.00  0.00    +0.000 A 
ATOM     22  C   UNL     1      -6.974   7.195 -20.911  0.00  0.00    +0.000 C 
ATOM     23  C   UNL     1      -3.529   7.289 -22.632  0.00  0.00    +0.000 A 
ATOM     24  C   UNL     1      -2.055   7.098 -22.373  0.00  0.00    +0.000 C 
ATOM     25  C   UNL     1      -3.934   7.680 -23.906  0.00  0.00    +0.000 A 
BRANCH  18  26
ATOM     26  C   UNL     1      -5.680   8.277 -25.623  0.00  0.00    +0.000 C 
BRANCH  26  27
ATOM     27  N   UNL     1      -4.805   9.323 -26.214  0.00  0.00    +0.000 N 
ATOM     28  H   UNL     1      -5.129   9.543 -27.156  0.00  0.00    +0.000 HD
ATOM     29  H   UNL     1      -4.842  10.162 -25.635  0.00  0.00    +0.000 HD
ATOM     30  H   UNL     1      -3.846   8.979 -26.255  0.00  0.00    +0.000 HD
ENDBRANCH  26  27
ENDBRANCH  18  26
ENDBRANCH   1  21
TORSDOF 4
