REMARK  Name = 6hot_ligand
REMARK  5 active torsions:
REMARK  status: ('A' for Active; 'I' for Inactive)
REMARK    1  A    between atoms: C_1  and  C_9
REMARK    2  A    between atoms: C_3  and  O_4
REMARK    3  A    between atoms: O_4  and  C_13
REMARK    4  A    between atoms: C_5  and  O_6
REMARK    5  A    between atoms: C_10  and  C_11
REMARK                            x       y       z     vdW  Elec       q    Type
REMARK                         _______ _______ _______ _____ _____    ______ ____
ROOT
ATOM      1  C   UNL     1     -22.860  14.213 -13.227  0.00  0.00    +0.000 A 
ATOM      2  C   UNL     1     -22.625  13.779 -14.532  0.00  0.00    +0.000 A 
ATOM      3  C   UNL     1     -22.459  12.408 -14.776  0.00  0.00    +0.000 A 
ATOM      4  C   UNL     1     -22.534  11.527 -13.703  0.00  0.00    +0.000 A 
ATOM      5  C   UNL     1     -22.767  11.968 -12.411  0.00  0.00    +0.000 A 
ATOM      6  C   UNL     1     -22.942  13.316 -12.171  0.00  0.00    +0.000 A 
ENDROOT
BRANCH   3   7
ATOM      7  O   UNL     1     -22.215  11.861 -16.049  0.00  0.00    +0.000 OA
ATOM      8  C   UNL     1     -22.217  12.739 -17.166  0.00  0.00    +0.000 C 
ENDBRANCH   3   7
BRANCH   4   9
ATOM      9  O   UNL     1     -22.359  10.174 -13.984  0.00  0.00    +0.000 OA
ATOM     10  H   UNL     1     -22.431   9.668 -13.172  0.00  0.00    +0.000 HD
ENDBRANCH   4   9
BRANCH   1  11
ATOM     11  C   UNL     1     -23.048  15.678 -12.894  0.00  0.00    +0.000 C 
ATOM     12  C   UNL     1     -22.885  16.644 -13.813  0.00  0.00    +0.000 C 
BRANCH  12  13
ATOM     13  C   UNL     1     -23.097  18.076 -13.382  0.00  0.00    +0.000 C 
ATOM     14  O   UNL     1     -23.022  18.976 -14.199  0.00  0.00    +0.000 OA
ENDBRANCH  12  13
ENDBRANCH   1  11
TORSDOF 4
