REMARK  Name = 6a73_ligand
REMARK  24 active torsions:
REMARK  status: ('A' for Active; 'I' for Inactive)
REMARK    1  A    between atoms: C_1  and  O_7
REMARK    2  A    between atoms: C_2  and  O_12
REMARK    3  A    between atoms: C_3  and  O_17
REMARK    4  A    between atoms: C_4  and  O_22
REMARK    5  A    between atoms: C_5  and  O_27
REMARK    6  A    between atoms: C_6  and  O_32
REMARK    7  A    between atoms: O_7  and  P_8
REMARK    8  A    between atoms: P_8  and  O_9
REMARK    9  A    between atoms: P_8  and  O_11
REMARK   10  A    between atoms: O_12  and  P_13
REMARK   11  A    between atoms: P_13  and  O_14
REMARK   12  A    between atoms: P_13  and  O_15
REMARK   13  A    between atoms: O_17  and  P_18
REMARK   14  A    between atoms: P_18  and  O_20
REMARK   15  A    between atoms: P_18  and  O_21
REMARK   16  A    between atoms: O_22  and  P_23
REMARK   17  A    between atoms: P_23  and  O_25
REMARK   18  A    between atoms: P_23  and  O_26
REMARK   19  A    between atoms: O_27  and  P_28
REMARK   20  A    between atoms: P_28  and  O_30
REMARK   21  A    between atoms: P_28  and  O_31
REMARK   22  A    between atoms: O_32  and  P_33
REMARK   23  A    between atoms: P_33  and  O_34
REMARK   24  A    between atoms: P_33  and  O_36
REMARK                            x       y       z     vdW  Elec       q    Type
REMARK                         _______ _______ _______ _____ _____    ______ ____
ROOT
ATOM      1  C   UNL     1       6.451 -19.891 -77.754  0.00  0.00    +0.000 C 
ATOM      2  C   UNL     1       5.628 -18.711 -78.321  0.00  0.00    +0.000 C 
ATOM      3  C   UNL     1       6.344 -18.029 -79.498  0.00  0.00    +0.000 C 
ATOM      4  C   UNL     1       6.622 -19.010 -80.646  0.00  0.00    +0.000 C 
ATOM      5  C   UNL     1       7.651 -19.998 -80.097  0.00  0.00    +0.000 C 
ATOM      6  C   UNL     1       7.151 -20.749 -78.830  0.00  0.00    +0.000 C 
ENDROOT
BRANCH   4   7
ATOM      7  O   UNL     1       7.194 -18.348 -81.727  0.00  0.00    +0.000 OA
BRANCH   7   8
ATOM      8  P   UNL     1       6.540 -18.792 -83.166  0.00  0.00    +0.000 P 
ATOM      9  O   UNL     1       6.730 -17.684 -84.171  0.00  0.00    +0.000 OA
BRANCH   8  10
ATOM     10  O   UNL     1       7.214 -20.061 -83.637  0.00  0.00    +0.000 OA
ATOM     11  H   UNL     1       7.082 -20.753 -82.985  0.00  0.00    +0.000 HD
ENDBRANCH   8  10
BRANCH   8  12
ATOM     12  O   UNL     1       5.061 -19.051 -82.987  0.00  0.00    +0.000 OA
ATOM     13  H   UNL     1       4.936 -19.756 -82.348  0.00  0.00    +0.000 HD
ENDBRANCH   8  12
ENDBRANCH   7   8
ENDBRANCH   4   7
BRANCH   3  14
ATOM     14  O   UNL     1       5.607 -16.938 -79.963  0.00  0.00    +0.000 OA
BRANCH  14  15
ATOM     15  P   UNL     1       6.468 -15.540 -79.916  0.00  0.00    +0.000 P 
ATOM     16  O   UNL     1       5.876 -14.529 -80.869  0.00  0.00    +0.000 OA
BRANCH  15  17
ATOM     17  O   UNL     1       6.449 -15.021 -78.496  0.00  0.00    +0.000 OA
ATOM     18  H   UNL     1       6.830 -15.680 -77.911  0.00  0.00    +0.000 HD
ENDBRANCH  15  17
BRANCH  15  19
ATOM     19  O   UNL     1       7.892 -15.842 -80.323  0.00  0.00    +0.000 OA
ATOM     20  H   UNL     1       8.268 -16.485 -79.717  0.00  0.00    +0.000 HD
ENDBRANCH  15  19
ENDBRANCH  14  15
ENDBRANCH   3  14
BRANCH   5  21
ATOM     21  O   UNL     1       8.131 -20.997 -80.971  0.00  0.00    +0.000 OA
BRANCH  21  22
ATOM     22  P   UNL     1       9.687 -21.532 -80.710  0.00  0.00    +0.000 P 
ATOM     23  O   UNL     1      10.632 -20.761 -81.601  0.00  0.00    +0.000 OA
BRANCH  22  24
ATOM     24  O   UNL     1       9.823 -23.011 -81.001  0.00  0.00    +0.000 OA
ATOM     25  H   UNL     1       9.223 -23.504 -80.436  0.00  0.00    +0.000 HD
ENDBRANCH  22  24
BRANCH  22  26
ATOM     26  O   UNL     1      10.104 -21.305 -79.274  0.00  0.00    +0.000 OA
ATOM     27  H   UNL     1       9.514 -21.788 -78.691  0.00  0.00    +0.000 HD
ENDBRANCH  22  26
ENDBRANCH  21  22
ENDBRANCH   5  21
BRANCH   2  28
ATOM     28  O   UNL     1       5.400 -17.776 -77.293  0.00  0.00    +0.000 OA
BRANCH  28  29
ATOM     29  P   UNL     1       3.855 -17.374 -76.859  0.00  0.00    +0.000 P 
ATOM     30  O   UNL     1       3.665 -15.886 -77.042  0.00  0.00    +0.000 OA
BRANCH  29  31
ATOM     31  O   UNL     1       3.609 -17.741 -75.411  0.00  0.00    +0.000 OA
ATOM     32  H   UNL     1       3.730 -18.686 -75.297  0.00  0.00    +0.000 HD
ENDBRANCH  29  31
BRANCH  29  33
ATOM     33  O   UNL     1       2.860 -18.105 -77.731  0.00  0.00    +0.000 OA
ATOM     34  H   UNL     1       2.974 -19.052 -77.620  0.00  0.00    +0.000 HD
ENDBRANCH  29  33
ENDBRANCH  28  29
ENDBRANCH   2  28
BRANCH   6  35
ATOM     35  O   UNL     1       6.215 -21.763 -79.178  0.00  0.00    +0.000 OA
BRANCH  35  36
ATOM     36  P   UNL     1       6.506 -23.399 -79.111  0.00  0.00    +0.000 P 
ATOM     37  O   UNL     1       7.303 -23.813 -80.324  0.00  0.00    +0.000 OA
BRANCH  36  38
ATOM     38  O   UNL     1       5.201 -24.166 -79.132  0.00  0.00    +0.000 OA
ATOM     39  H   UNL     1       4.674 -23.920 -78.368  0.00  0.00    +0.000 HD
ENDBRANCH  36  38
BRANCH  36  40
ATOM     40  O   UNL     1       7.272 -23.774 -77.865  0.00  0.00    +0.000 OA
ATOM     41  H   UNL     1       6.769 -23.512 -77.091  0.00  0.00    +0.000 HD
ENDBRANCH  36  40
ENDBRANCH  35  36
ENDBRANCH   6  35
BRANCH   1  42
ATOM     42  O   UNL     1       5.535 -20.684 -77.017  0.00  0.00    +0.000 OA
BRANCH  42  43
ATOM     43  P   UNL     1       5.863 -21.345 -75.533  0.00  0.00    +0.000 P 
ATOM     44  O   UNL     1       7.072 -22.243 -75.631  0.00  0.00    +0.000 OA
BRANCH  43  45
ATOM     45  O   UNL     1       4.688 -22.175 -75.061  0.00  0.00    +0.000 OA
ATOM     46  H   UNL     1       3.910 -21.617 -74.994  0.00  0.00    +0.000 HD
ENDBRANCH  43  45
BRANCH  43  47
ATOM     47  O   UNL     1       6.120 -20.264 -74.509  0.00  0.00    +0.000 OA
ATOM     48  H   UNL     1       5.350 -19.694 -74.448  0.00  0.00    +0.000 HD
ENDBRANCH  43  47
ENDBRANCH  42  43
ENDBRANCH   1  42
TORSDOF 24
