REMARK  Name = 6n97_ligand
REMARK  32 active torsions:
REMARK  status: ('A' for Active; 'I' for Inactive)
REMARK    1  A    between atoms: O_1  and  P_2
REMARK    2  A    between atoms: P_2  and  O_3
REMARK    3  A    between atoms: P_2  and  O_5
REMARK    4  A    between atoms: O_5  and  C_6
REMARK    5  A    between atoms: C_7  and  O_8
REMARK    6  A    between atoms: C_9  and  N_10
REMARK    7  A    between atoms: C_15  and  N_16
REMARK    8  A    between atoms: C_21  and  C_22
REMARK    9  A    between atoms: C_22  and  O_23
REMARK   10  A    between atoms: O_23  and  P_24
REMARK   11  A    between atoms: P_24  and  O_26
REMARK   12  A    between atoms: P_24  and  O_27
REMARK   13  A    between atoms: O_27  and  P_28
REMARK   14  A    between atoms: P_28  and  O_29
REMARK   15  A    between atoms: P_28  and  O_31
REMARK   16  A    between atoms: O_31  and  C_32
REMARK   17  A    between atoms: C_32  and  C_33
REMARK   18  A    between atoms: C_33  and  C_34
REMARK   19  A    between atoms: C_33  and  C_35
REMARK   20  A    between atoms: C_33  and  C_36
REMARK   21  A    between atoms: C_36  and  O_37
REMARK   22  A    between atoms: C_36  and  C_38
REMARK   23  A    between atoms: N_40  and  C_41
REMARK   24  A    between atoms: C_41  and  C_42
REMARK   25  A    between atoms: C_42  and  C_43
REMARK   26  A    between atoms: N_45  and  C_46
REMARK   27  A    between atoms: C_46  and  C_47
REMARK   28  A    between atoms: C_47  and  N_48
REMARK   29  A    between atoms: C_49  and  C_51
REMARK   30  A    between atoms: C_51  and  C_52
REMARK   31  A    between atoms: C_51  and  S_53
REMARK   32  A    between atoms: S_53  and  O_55
REMARK                            x       y       z     vdW  Elec       q    Type
REMARK                         _______ _______ _______ _____ _____    ______ ____
ROOT
ATOM      1  P   UNL     1      18.614  22.578  22.078  0.00  0.00    +0.000 P 
ATOM      2  O   UNL     1      17.215  22.202  21.736  0.00  0.00    +0.000 OA
ENDROOT
BRANCH   1   3
ATOM      3  O   UNL     1      18.742  23.237  23.419  0.00  0.00    +0.000 OA
ATOM      4  H   UNL     1      19.663  23.454  23.581  0.00  0.00    +0.000 HD
ENDBRANCH   1   3
BRANCH   1   5
ATOM      5  O   UNL     1      19.476  21.210  22.048  0.00  0.00    +0.000 OA
BRANCH   5   6
ATOM      6  C   UNL     1      20.809  21.225  22.533  0.00  0.00    +0.000 C 
BRANCH   6   7
ATOM      7  C   UNL     1      21.701  20.387  21.642  0.00  0.00    +0.000 C 
ATOM      8  C   UNL     1      23.126  20.089  22.062  0.00  0.00    +0.000 C 
ATOM      9  C   UNL     1      21.215  19.158  22.419  0.00  0.00    +0.000 C 
BRANCH   7  10
ATOM     10  C   UNL     1      21.202  19.773  20.347  0.00  0.00    +0.000 C 
BRANCH  10  11
ATOM     11  C   UNL     1      22.057  18.662  19.784  0.00  0.00    +0.000 C 
ATOM     12  O   UNL     1      21.923  17.476  20.102  0.00  0.00    +0.000 OA
ATOM     13  N   UNL     1      22.990  19.046  18.937  0.00  0.00    +0.000 N 
ATOM     14  H   UNL     1      23.044  20.031  18.677  0.00  0.00    +0.000 HD
BRANCH  13  15
ATOM     15  C   UNL     1      23.938  18.120  18.364  0.00  0.00    +0.000 C 
BRANCH  15  16
ATOM     16  C   UNL     1      24.948  17.664  19.399  0.00  0.00    +0.000 C 
BRANCH  16  17
ATOM     17  C   UNL     1      25.951  16.775  18.722  0.00  0.00    +0.000 C 
ATOM     18  O   UNL     1      25.599  15.794  18.116  0.00  0.00    +0.000 OA
ATOM     19  N   UNL     1      27.213  17.100  18.769  0.00  0.00    +0.000 N 
ATOM     20  H   UNL     1      27.505  17.923  19.297  0.00  0.00    +0.000 HD
BRANCH  19  21
ATOM     21  C   UNL     1      28.189  16.311  18.086  0.00  0.00    +0.000 C 
BRANCH  21  22
ATOM     22  C   UNL     1      28.819  17.111  16.958  0.00  0.00    +0.000 C 
BRANCH  22  23
ATOM     23  N   UNL     1      29.657  16.262  16.161  0.00  0.00    +0.000 N 
ATOM     24  C   UNL     1      31.005  15.932  16.631  0.00  0.00    +0.000 C 
ATOM     25  O   UNL     1      31.441  16.449  17.654  0.00  0.00    +0.000 OA
ATOM     26  H   UNL     1      29.317  15.891  15.274  0.00  0.00    +0.000 HD
BRANCH  24  27
ATOM     27  C   UNL     1      31.751  14.934  15.805  0.00  0.00    +0.000 C 
ATOM     28  C   UNL     1      33.255  15.044  15.972  0.00  0.00    +0.000 C 
BRANCH  27  29
ATOM     29  S   UNL     1      31.302  13.384  16.277  0.00  0.00    +0.000 S 
ATOM     30  O   UNL     1      31.726  13.309  17.641  0.00  0.00    +0.000 OA
ATOM     31  O   UNL     1      31.963  12.545  15.338  0.00  0.00    +0.000 OA
BRANCH  29  32
ATOM     32  O   UNL     1      29.868  13.224  16.263  0.00  0.00    +0.000 OA
ATOM     33  H   UNL     1      29.551  13.270  15.358  0.00  0.00    +0.000 HD
ENDBRANCH  29  32
ENDBRANCH  27  29
ENDBRANCH  24  27
ENDBRANCH  22  23
ENDBRANCH  21  22
ENDBRANCH  19  21
ENDBRANCH  16  17
ENDBRANCH  15  16
ENDBRANCH  13  15
ENDBRANCH  10  11
BRANCH  10  34
ATOM     34  O   UNL     1      21.337  20.928  19.564  0.00  0.00    +0.000 OA
ATOM     35  H   UNL     1      21.058  20.738  18.665  0.00  0.00    +0.000 HD
ENDBRANCH  10  34
ENDBRANCH   7  10
ENDBRANCH   6   7
ENDBRANCH   5   6
ENDBRANCH   1   5
BRANCH   1  36
ATOM     36  O   UNL     1      19.137  23.655  21.046  0.00  0.00    +0.000 OA
BRANCH  36  37
ATOM     37  P   UNL     1      18.909  23.511  19.470  0.00  0.00    +0.000 P 
ATOM     38  O   UNL     1      18.586  22.099  19.078  0.00  0.00    +0.000 OA
BRANCH  37  39
ATOM     39  O   UNL     1      17.783  24.444  19.125  0.00  0.00    +0.000 OA
ATOM     40  H   UNL     1      18.018  25.337  19.387  0.00  0.00    +0.000 HD
ENDBRANCH  37  39
BRANCH  37  41
ATOM     41  O   UNL     1      20.173  24.100  18.738  0.00  0.00    +0.000 OA
BRANCH  41  42
ATOM     42  C   UNL     1      20.567  25.457  18.913  0.00  0.00    +0.000 C 
BRANCH  42  47
ATOM     43  C   UNL     1      20.625  25.204  16.432  0.00  0.00    +0.000 C 
ATOM     44  C   UNL     1      21.411  23.928  16.235  0.00  0.00    +0.000 C 
ATOM     45  C   UNL     1      22.787  24.468  16.595  0.00  0.00    +0.000 C 
ATOM     46  O   UNL     1      22.655  25.438  17.654  0.00  0.00    +0.000 OA
ATOM     47  C   UNL     1      21.279  25.885  17.629  0.00  0.00    +0.000 C 
BRANCH  45  48
ATOM     48  N   UNL     1      23.700  23.384  16.989  0.00  0.00    +0.000 N 
ATOM     49  C   UNL     1      24.838  23.167  16.339  0.00  0.00    +0.000 A 
ATOM     50  N   UNL     1      25.424  23.696  15.245  0.00  0.00    +0.000 NA
ATOM     51  C   UNL     1      26.604  23.201  14.823  0.00  0.00    +0.000 A 
ATOM     52  N   UNL     1      27.247  22.162  15.430  0.00  0.00    +0.000 NA
ATOM     53  C   UNL     1      26.741  21.568  16.521  0.00  0.00    +0.000 A 
ATOM     54  C   UNL     1      25.472  22.052  17.042  0.00  0.00    +0.000 A 
ATOM     55  N   UNL     1      24.667  21.697  18.066  0.00  0.00    +0.000 NA
ATOM     56  C   UNL     1      23.587  22.526  18.038  0.00  0.00    +0.000 A 
BRANCH  53  57
ATOM     57  N   UNL     1      27.354  20.539  17.150  0.00  0.00    +0.000 N 
ATOM     58  H   UNL     1      28.242  20.182  16.797  0.00  0.00    +0.000 HD
ATOM     59  H   UNL     1      26.928  20.120  17.977  0.00  0.00    +0.000 HD
ENDBRANCH  53  57
ENDBRANCH  45  48
BRANCH  44  60
ATOM     60  O   UNL     1      21.356  23.402  14.889  0.00  0.00    +0.000 OA
ATOM     61  H   UNL     1      20.471  23.075  14.710  0.00  0.00    +0.000 HD
ENDBRANCH  44  60
BRANCH  43  62
ATOM     62  O   UNL     1      20.797  25.983  15.255  0.00  0.00    +0.000 OA
BRANCH  62  63
ATOM     63  P   UNL     1      19.649  26.970  14.669  0.00  0.00    +0.000 P 
ATOM     64  O   UNL     1      19.318  28.024  15.684  0.00  0.00    +0.000 OA
BRANCH  63  65
ATOM     65  O   UNL     1      18.453  26.105  14.332  0.00  0.00    +0.000 OA
ATOM     66  H   UNL     1      18.709  25.447  13.682  0.00  0.00    +0.000 HD
ENDBRANCH  63  65
BRANCH  63  67
ATOM     67  O   UNL     1      20.285  27.613  13.464  0.00  0.00    +0.000 OA
ATOM     68  H   UNL     1      20.496  26.937  12.816  0.00  0.00    +0.000 HD
ENDBRANCH  63  67
ENDBRANCH  62  63
ENDBRANCH  43  62
ENDBRANCH  42  47
ENDBRANCH  41  42
ENDBRANCH  37  41
ENDBRANCH  36  37
ENDBRANCH   1  36
TORSDOF 29
