REMARK  Name = 6ott_ligand
REMARK  17 active torsions:
REMARK  status: ('A' for Active; 'I' for Inactive)
REMARK    1  A    between atoms: O_1  and  P_32
REMARK    2  A    between atoms: O_1  and  P_33
REMARK    3  A    between atoms: C_3  and  N_16
REMARK    4  A    between atoms: O_4  and  P_33
REMARK    5  A    between atoms: C_5  and  O_19
REMARK    6  A    between atoms: C_7  and  O_23
REMARK    7  A    between atoms: C_8  and  C_10
REMARK    8  A    between atoms: C_10  and  O_15
REMARK    9  A    between atoms: O_11  and  P_33
REMARK   10  A    between atoms: O_15  and  P_34
REMARK   11  A    between atoms: O_23  and  P_32
REMARK   12  A    between atoms: O_24  and  P_35
REMARK   13  A    between atoms: O_25  and  P_35
REMARK   14  A    between atoms: O_28  and  P_34
REMARK   15  A    between atoms: O_30  and  P_32
REMARK   16  A    between atoms: O_31  and  P_34
REMARK   17  A    between atoms: O_31  and  P_35
REMARK                            x       y       z     vdW  Elec       q    Type
REMARK                         _______ _______ _______ _____ _____    ______ ____
ROOT
ATOM      1  C   UNL     1      57.126  27.788 -31.634  0.00  0.00    +0.000 C 
ATOM      2  C   UNL     1      56.431  28.534 -30.485  0.00  0.00    +0.000 C 
ATOM      3  C   UNL     1      57.614  28.834 -29.567  0.00  0.00    +0.000 C 
ATOM      4  C   UNL     1      58.484  27.599 -29.737  0.00  0.00    +0.000 C 
ATOM      5  O   UNL     1      58.368  27.308 -31.145  0.00  0.00    +0.000 OA
ENDROOT
BRANCH   1  10
ATOM      6  C   UNL     1      55.797  25.640 -31.417  0.00  0.00    +0.000 A 
ATOM      7  N   UNL     1      55.263  25.385 -35.795  0.00  0.00    +0.000 NA
ATOM      8  N   UNL     1      56.426  27.079 -34.540  0.00  0.00    +0.000 NA
ATOM      9  N   UNL     1      55.171  24.746 -32.144  0.00  0.00    +0.000 NA
ATOM     10  N   UNL     1      56.364  26.651 -32.149  0.00  0.00    +0.000 N 
ATOM     11  N   UNL     1      54.196  23.585 -34.834  0.00  0.00    +0.000 N 
ATOM     12  C   UNL     1      54.918  24.694 -34.687  0.00  0.00    +0.000 A 
ATOM     13  C   UNL     1      55.976  26.505 -35.658  0.00  0.00    +0.000 A 
ATOM     14  C   UNL     1      56.075  26.374 -33.459  0.00  0.00    +0.000 A 
ATOM     15  C   UNL     1      55.339  25.197 -33.445  0.00  0.00    +0.000 A 
ATOM     16  H   UNL     1      53.918  23.277 -35.766  0.00  0.00    +0.000 HD
ATOM     17  H   UNL     1      53.921  23.043 -34.015  0.00  0.00    +0.000 HD
ENDBRANCH   1  10
BRANCH   2  18
ATOM     18  O   UNL     1      55.841  29.741 -30.957  0.00  0.00    +0.000 OA
ATOM     19  H   UNL     1      55.101  29.531 -31.531  0.00  0.00    +0.000 HD
ENDBRANCH   2  18
BRANCH   3  20
ATOM     20  O   UNL     1      58.323  30.041 -29.921  0.00  0.00    +0.000 OA
BRANCH  20  22
ATOM     21  O   UNL     1      59.445  30.704 -27.625  0.00  0.00    +0.000 OA
ATOM     22  P   UNL     1      59.063  31.277 -28.934  0.00  0.00    +0.000 P 
BRANCH  22  23
ATOM     23  O   UNL     1      60.112  31.883 -29.786  0.00  0.00    +0.000 OA
ATOM     24  H   UNL     1      59.715  32.209 -30.597  0.00  0.00    +0.000 HD
ENDBRANCH  22  23
BRANCH  22  25
ATOM     25  O   UNL     1      57.869  32.330 -28.760  0.00  0.00    +0.000 OA
BRANCH  25  27
ATOM     26  O   UNL     1      56.317  31.722 -26.628  0.00  0.00    +0.000 OA
ATOM     27  P   UNL     1      56.178  32.367 -27.989  0.00  0.00    +0.000 P 
BRANCH  27  28
ATOM     28  O   UNL     1      55.905  33.854 -27.906  0.00  0.00    +0.000 OA
ATOM     29  H   UNL     1      55.826  34.214 -28.793  0.00  0.00    +0.000 HD
ENDBRANCH  27  28
BRANCH  27  30
ATOM     30  O   UNL     1      55.197  31.641 -28.885  0.00  0.00    +0.000 OA
ATOM     31  H   UNL     1      55.147  32.090 -29.732  0.00  0.00    +0.000 HD
ENDBRANCH  27  30
ENDBRANCH  25  27
ENDBRANCH  22  25
ENDBRANCH  20  22
ENDBRANCH   3  20
BRANCH   4  32
ATOM     32  C   UNL     1      58.043  26.397 -28.940  0.00  0.00    +0.000 C 
BRANCH  32  33
ATOM     33  O   UNL     1      58.493  26.529 -27.574  0.00  0.00    +0.000 OA
BRANCH  33  35
ATOM     34  O   UNL     1      57.052  28.251 -26.461  0.00  0.00    +0.000 OA
ATOM     35  P   UNL     1      57.461  26.832 -26.392  0.00  0.00    +0.000 P 
BRANCH  35  36
ATOM     36  O   UNL     1      56.408  25.788 -26.391  0.00  0.00    +0.000 OA
ATOM     37  H   UNL     1      56.818  24.921 -26.343  0.00  0.00    +0.000 HD
ENDBRANCH  35  36
BRANCH  35  38
ATOM     38  O   UNL     1      58.410  26.631 -25.118  0.00  0.00    +0.000 OA
BRANCH  38  40
ATOM     39  O   UNL     1      59.742  29.011 -24.487  0.00  0.00    +0.000 OA
ATOM     40  P   UNL     1      59.875  27.505 -24.427  0.00  0.00    +0.000 P 
BRANCH  40  41
ATOM     41  O   UNL     1      59.995  26.982 -23.010  0.00  0.00    +0.000 OA
ATOM     42  H   UNL     1      60.076  26.026 -23.029  0.00  0.00    +0.000 HD
ENDBRANCH  40  41
BRANCH  40  43
ATOM     43  O   UNL     1      60.962  26.975 -25.338  0.00  0.00    +0.000 OA
ATOM     44  H   UNL     1      61.004  26.019 -25.262  0.00  0.00    +0.000 HD
ENDBRANCH  40  43
ENDBRANCH  38  40
ENDBRANCH  35  38
ENDBRANCH  33  35
ENDBRANCH  32  33
ENDBRANCH   4  32
TORSDOF 17
