REMARK  Name = 6jib_ligand
REMARK  3 active torsions:
REMARK  status: ('A' for Active; 'I' for Inactive)
REMARK    1  A    between atoms: C_1  and  C_14
REMARK    2  A    between atoms: C_1  and  O_17
REMARK    3  A    between atoms: C_7  and  C_10
REMARK                            x       y       z     vdW  Elec       q    Type
REMARK                         _______ _______ _______ _____ _____    ______ ____
ROOT
ATOM      1  C   UNL     1     -61.789  28.247 -29.053  0.00  0.00    +0.000 A 
ATOM      2  C   UNL     1     -62.886  28.266 -31.198  0.00  0.00    +0.000 A 
ATOM      3  C   UNL     1     -61.640  28.150 -31.841  0.00  0.00    +0.000 A 
ATOM      4  C   UNL     1     -60.457  28.055 -31.110  0.00  0.00    +0.000 A 
ATOM      5  C   UNL     1     -61.628  29.860 -24.019  0.00  0.00    +0.000 C 
ATOM      6  C   UNL     1     -61.780  28.306 -27.589  0.00  0.00    +0.000 A 
ATOM      7  C   UNL     1     -63.133  28.416 -26.877  0.00  0.00    +0.000 C 
ATOM      8  C   UNL     1     -60.592  28.214 -26.931  0.00  0.00    +0.000 A 
ATOM      9  C   UNL     1     -60.462  28.286 -25.454  0.00  0.00    +0.000 C 
ATOM     10  C   UNL     1     -62.977  28.178 -25.375  0.00  0.00    +0.000 C 
ATOM     11  O   UNL     1     -60.519  30.277 -23.632  0.00  0.00    +0.000 OA
ATOM     12  N   UNL     1     -61.739  28.843 -24.912  0.00  0.00    +0.000 N 
ATOM     13  C   UNL     1     -59.327  28.062 -27.636  0.00  0.00    +0.000 A 
ATOM     14  O   UNL     1     -58.275  27.986 -27.031  0.00  0.00    +0.000 OA
ATOM     15  O   UNL     1     -59.377  28.021 -29.011  0.00  0.00    +0.000 OA
ATOM     16  C   UNL     1     -60.548  28.119 -29.715  0.00  0.00    +0.000 A 
ATOM     17  C   UNL     1     -62.990  28.333 -29.787  0.00  0.00    +0.000 A 
ENDROOT
BRANCH   5  19
ATOM     18  C   UNL     1     -65.190  31.155 -23.860  0.00  0.00    +0.000 A 
ATOM     19  C   UNL     1     -62.875  30.397 -23.461  0.00  0.00    +0.000 A 
ATOM     20  C   UNL     1     -63.017  30.604 -22.065  0.00  0.00    +0.000 A 
ATOM     21  C   UNL     1     -64.250  31.081 -21.581  0.00  0.00    +0.000 A 
ATOM     22  C   UNL     1     -65.316  31.391 -22.462  0.00  0.00    +0.000 A 
ATOM     23  C   UNL     1     -63.938  30.674 -24.336  0.00  0.00    +0.000 A 
BRANCH  22  24
ATOM     24  C   UNL     1     -66.582  31.875 -21.877  0.00  0.00    +0.000 C 
ATOM     25  O   UNL     1     -66.534  32.319 -20.720  0.00  0.00    +0.000 OA
BRANCH  24  26
ATOM     26  O   UNL     1     -67.643  31.737 -22.520  0.00  0.00    +0.000 OA
ATOM     27  H   UNL     1     -67.445  31.379 -23.389  0.00  0.00    +0.000 HD
ENDBRANCH  24  26
ENDBRANCH  22  24
ENDBRANCH   5  19
TORSDOF 3
