REMARK  Name = 6e3p_ligand
REMARK  5 active torsions:
REMARK  status: ('A' for Active; 'I' for Inactive)
REMARK    1  A    between atoms: O_1  and  C_2
REMARK    2  A    between atoms: C_2  and  CA_4
REMARK    3  A    between atoms: C_6  and  O_7
REMARK    4  A    between atoms: C_11  and  C_12
REMARK    5  A    between atoms: C_17  and  C_18
REMARK                            x       y       z     vdW  Elec       q    Type
REMARK                         _______ _______ _______ _____ _____    ______ ____
ROOT
ATOM      1  CA  UNL     1     -19.156  17.069 135.727  0.00  0.00    +0.000 C 
ATOM      2  N   UNL     1     -19.880  17.822 136.672  0.00  0.00    +0.000 NA
ATOM      3  C   UNL     1     -19.519  17.150 134.354  0.00  0.00    +0.000 C 
ATOM      4  C   UNL     1     -20.592  17.957 133.947  0.00  0.00    +0.000 C 
ATOM      5  O   UNL     1     -20.962  18.061 132.771  0.00  0.00    +0.000 OA
ATOM      6  C   UNL     1     -21.276  18.688 134.910  0.00  0.00    +0.000 C 
ATOM      7  C   UNL     1     -20.947  18.648 136.274  0.00  0.00    +0.000 C 
ENDROOT
BRANCH   7   8
ATOM      8  C   UNL     1     -21.683  19.419 137.201  0.00  0.00    +0.000 A 
ATOM      9  C   UNL     1     -22.853  20.075 136.780  0.00  0.00    +0.000 A 
ATOM     10  C   UNL     1     -21.310  19.580 138.545  0.00  0.00    +0.000 A 
ATOM     11  C   UNL     1     -22.099  20.367 139.398  0.00  0.00    +0.000 A 
ATOM     12  C   UNL     1     -23.262  21.007 138.951  0.00  0.00    +0.000 A 
ATOM     13  C   UNL     1     -23.658  20.869 137.615  0.00  0.00    +0.000 A 
BRANCH  13  14
ATOM     14  C   UNL     1     -24.781  21.448 137.088  0.00  0.00    +0.000 A 
ATOM     15  N   UNL     1     -25.193  21.358 135.807  0.00  0.00    +0.000 NA
ATOM     16  N   UNL     1     -26.262  22.002 135.662  0.00  0.00    +0.000 NA
ATOM     17  N   UNL     1     -26.589  22.516 136.773  0.00  0.00    +0.000 NA
ATOM     18  N   UNL     1     -25.691  22.191 137.713  0.00  0.00    +0.000 NA
ENDBRANCH  13  14
ENDBRANCH   7   8
BRANCH   1  19
ATOM     19  C   UNL     1     -18.125  16.241 136.199  0.00  0.00    +0.000 C 
ATOM     20  OXT UNL     1     -17.402  15.615 135.389  0.00  0.00    +0.000 OA
BRANCH  19  21
ATOM     21  O   UNL     1     -17.974  16.030 137.428  0.00  0.00    +0.000 OA
ATOM     22  H   UNL     1     -18.590  16.575 137.923  0.00  0.00    +0.000 HD
ENDBRANCH  19  21
ENDBRANCH   1  19
BRANCH   3  23
ATOM     23  O   UNL     1     -18.839  16.418 133.393  0.00  0.00    +0.000 OA
ATOM     24  H   UNL     1     -18.136  15.917 133.812  0.00  0.00    +0.000 HD
ENDBRANCH   3  23
TORSDOF 5
