REMARK  Name = 6s9x_ligand
REMARK  10 active torsions:
REMARK  status: ('A' for Active; 'I' for Inactive)
REMARK    1  A    between atoms: C_3  and  C_5
REMARK    2  A    between atoms: C_4  and  C_6
REMARK    3  A    between atoms: C_14  and  C_17
REMARK    4  A    between atoms: C_17  and  N_42
REMARK    5  A    between atoms: C_20  and  N_43
REMARK    6  A    between atoms: C_28  and  N_45
REMARK    7  A    between atoms: C_30  and  C_31
REMARK    8  A    between atoms: C_31  and  C_32
REMARK    9  A    between atoms: C_33  and  C_34
REMARK   10  A    between atoms: C_37  and  O_49
REMARK                            x       y       z     vdW  Elec       q    Type
REMARK                         _______ _______ _______ _____ _____    ______ ____
ROOT
ATOM      1  C   UNL     1       3.332   2.006  13.177  0.00  0.00    +0.000 A 
ATOM      2  C   UNL     1       3.913   3.252  13.402  0.00  0.00    +0.000 A 
ATOM      3  C   UNL     1       4.187   4.114  12.348  0.00  0.00    +0.000 A 
ATOM      4  C   UNL     1       3.873   3.768  11.039  0.00  0.00    +0.000 A 
ATOM      5  C   UNL     1       3.294   2.526  10.796  0.00  0.00    +0.000 A 
ATOM      6  C   UNL     1       3.024   1.658  11.861  0.00  0.00    +0.000 A 
ENDROOT
BRANCH   1  10
ATOM      7  C   UNL     1       1.503  -0.275  15.351  0.00  0.00    +0.000 C 
ATOM      8  C   UNL     1       2.446  -0.628  16.304  0.00  0.00    +0.000 C 
ATOM      9  C   UNL     1       4.042   0.781  15.196  0.00  0.00    +0.000 C 
ATOM     10  C   UNL     1       3.063   1.123  14.239  0.00  0.00    +0.000 C 
ATOM     11  C   UNL     1       0.247  -0.876  15.511  0.00  0.00    +0.000 C 
ATOM     12  N   UNL     1       3.720  -0.095  16.227  0.00  0.00    +0.000 N 
ATOM     13  N   UNL     1       1.829   0.575  14.349  0.00  0.00    +0.000 N 
ATOM     14  O   UNL     1       2.165  -1.406  17.216  0.00  0.00    +0.000 OA
ATOM     15  H   UNL     1       4.421  -0.344  16.924  0.00  0.00    +0.000 HD
ATOM     16  H   UNL     1       1.121   0.811  13.653  0.00  0.00    +0.000 HD
BRANCH   9  17
ATOM     17  C   UNL     1       5.359   1.241  15.221  0.00  0.00    +0.000 A 
ATOM     18  C   UNL     1       5.817   1.902  16.354  0.00  0.00    +0.000 A 
ATOM     19  C   UNL     1       7.127   2.365  16.419  0.00  0.00    +0.000 A 
ATOM     20  C   UNL     1       7.989   2.154  15.351  0.00  0.00    +0.000 A 
ATOM     21  C   UNL     1       7.535   1.485  14.219  0.00  0.00    +0.000 A 
ATOM     22  C   UNL     1       6.226   1.022  14.154  0.00  0.00    +0.000 A 
ENDBRANCH   9  17
BRANCH  11  23
ATOM     23  C   UNL     1      -0.821  -0.351  14.787  0.00  0.00    +0.000 A 
ATOM     24  C   UNL     1      -0.877  -0.413  13.400  0.00  0.00    +0.000 A 
ATOM     25  C   UNL     1      -1.978   0.103  12.723  0.00  0.00    +0.000 A 
ATOM     26  C   UNL     1      -3.037   0.664  13.426  0.00  0.00    +0.000 A 
ATOM     27  C   UNL     1      -2.991   0.711  14.814  0.00  0.00    +0.000 A 
ATOM     28  C   UNL     1      -1.888   0.197  15.488  0.00  0.00    +0.000 A 
BRANCH  26  29
ATOM     29  O   UNL     1      -4.113   1.166  12.762  0.00  0.00    +0.000 OA
ATOM     30  H   UNL     1      -4.746   1.512  13.396  0.00  0.00    +0.000 HD
ENDBRANCH  26  29
ENDBRANCH  11  23
ENDBRANCH   1  10
BRANCH   4  31
ATOM     31  C   UNL     1       4.178   4.659  10.002  0.00  0.00    +0.000 C 
BRANCH  31  37
ATOM     32  C   UNL     1       2.269   6.026   9.648  0.00  0.00    +0.000 C 
ATOM     33  C   UNL     1       1.151   6.436   8.704  0.00  0.00    +0.000 C 
ATOM     34  C   UNL     1       1.723   6.894   7.359  0.00  0.00    +0.000 C 
ATOM     35  C   UNL     1       2.597   5.794   6.798  0.00  0.00    +0.000 C 
ATOM     36  C   UNL     1       3.668   5.454   7.822  0.00  0.00    +0.000 C 
ATOM     37  N   UNL     1       3.077   4.946   9.070  0.00  0.00    +0.000 N 
ATOM     38  H   UNL     1       2.513   4.113   8.901  0.00  0.00    +0.000 HD
BRANCH  34  46
ATOM     39  C   UNL     1      -0.526   6.713   6.159  0.00  0.00    +0.000 A 
ATOM     40  C   UNL     1      -0.421   8.377   4.840  0.00  0.00    +0.000 A 
ATOM     41  C   UNL     1       0.718   8.339   5.547  0.00  0.00    +0.000 A 
ATOM     42  C   UNL     1      -0.642   9.312   3.920  0.00  0.00    +0.000 A 
ATOM     43  C   UNL     1       0.308  10.285   3.668  0.00  0.00    +0.000 A 
ATOM     44  C   UNL     1       1.482  10.265   4.404  0.00  0.00    +0.000 A 
ATOM     45  C   UNL     1       1.671   9.255   5.346  0.00  0.00    +0.000 A 
ATOM     46  N   UNL     1       0.651   7.297   6.385  0.00  0.00    +0.000 N 
ATOM     47  N   UNL     1      -1.192   7.367   5.224  0.00  0.00    +0.000 N 
ATOM     48  O   UNL     1      -0.976   5.720   6.729  0.00  0.00    +0.000 OA
ATOM     49  H   UNL     1      -2.120   7.140   4.866  0.00  0.00    +0.000 HD
BRANCH  44  51
ATOM     50  C   UNL     1       2.161  12.477   4.414  0.00  0.00    +0.000 C 
ATOM     51  N   UNL     1       2.412  11.186   4.150  0.00  0.00    +0.000 N 
ATOM     52  O   UNL     1       1.139  12.902   4.949  0.00  0.00    +0.000 OA
ATOM     53  H   UNL     1       3.312  10.910   3.756  0.00  0.00    +0.000 HD
BRANCH  50  54
ATOM     54  C   UNL     1       3.286  13.429   4.004  0.00  0.00    +0.000 C 
ATOM     55  C   UNL     1       3.331  13.471   2.455  0.00  0.00    +0.000 C 
ENDBRANCH  50  54
ENDBRANCH  44  51
ENDBRANCH  34  46
ENDBRANCH  31  37
ENDBRANCH   4  31
TORSDOF 9
