REMARK  Name = 6gj7_ligand
REMARK  8 active torsions:
REMARK  status: ('A' for Active; 'I' for Inactive)
REMARK    1  A    between atoms: C_2  and  O_38
REMARK    2  A    between atoms: C_6  and  C_13
REMARK    3  A    between atoms: C_14  and  C_15
REMARK    4  A    between atoms: C_14  and  N_35
REMARK    5  A    between atoms: C_21  and  C_22
REMARK    6  A    between atoms: C_22  and  N_35
REMARK    7  A    between atoms: C_26  and  C_27
REMARK    8  A    between atoms: C_26  and  N_36
REMARK                            x       y       z     vdW  Elec       q    Type
REMARK                         _______ _______ _______ _____ _____    ______ ____
ROOT
ATOM      1  C   UNL     1      15.005  14.772 -19.675  0.00  0.00    +0.000 C 
ATOM      2  C   UNL     1      15.180  14.074 -18.391  0.00  0.00    +0.000 A 
ATOM      3  C   UNL     1      16.063  13.174 -15.898  0.00  0.00    +0.000 A 
ATOM      4  C   UNL     1      16.744  14.206 -16.517  0.00  0.00    +0.000 A 
ATOM      5  C   UNL     1      15.989  15.690 -19.742  0.00  0.00    +0.000 C 
ATOM      6  C   UNL     1      16.307  14.667 -17.766  0.00  0.00    +0.000 A 
ATOM      7  C   UNL     1      14.512  13.029 -17.741  0.00  0.00    +0.000 A 
ATOM      8  C   UNL     1      14.941  12.597 -16.508  0.00  0.00    +0.000 A 
ATOM      9  N   UNL     1      16.773  15.629 -18.623  0.00  0.00    +0.000 NA
ENDROOT
BRANCH   1  15
ATOM     10  C   UNL     1      10.149  12.860 -19.790  0.00  0.00    +0.000 A 
ATOM     11  C   UNL     1      10.429  14.105 -19.216  0.00  0.00    +0.000 A 
ATOM     12  C   UNL     1      11.649  14.739 -19.460  0.00  0.00    +0.000 A 
ATOM     13  C   UNL     1      13.455  12.468 -21.667  0.00  0.00    +0.000 C 
ATOM     14  C   UNL     1      12.592  14.123 -20.261  0.00  0.00    +0.000 A 
ATOM     15  C   UNL     1      13.966  14.512 -20.755  0.00  0.00    +0.000 C 
ATOM     16  C   UNL     1      11.082  12.235 -20.592  0.00  0.00    +0.000 A 
ATOM     17  C   UNL     1      12.304  12.873 -20.849  0.00  0.00    +0.000 A 
ATOM     18  N   UNL     1      14.408  13.413 -21.613  0.00  0.00    +0.000 N 
ATOM     19  O   UNL     1      13.529  11.428 -22.299  0.00  0.00    +0.000 OA
ATOM     20  H   UNL     1      15.305  13.371 -22.097  0.00  0.00    +0.000 HD
BRANCH  11  21
ATOM     21  O   UNL     1       9.507  14.677 -18.403  0.00  0.00    +0.000 OA
ATOM     22  H   UNL     1       9.839  15.521 -18.088  0.00  0.00    +0.000 HD
ENDBRANCH  11  21
ENDBRANCH   1  15
BRANCH   5  23
ATOM     23  C   UNL     1      16.254  16.629 -20.894  0.00  0.00    +0.000 C 
BRANCH  23  24
ATOM     24  N   UNL     1      17.523  16.230 -21.534  0.00  0.00    +0.000 N 
ATOM     25  H   UNL     1      17.285  15.573 -22.277  0.00  0.00    +0.000 HD
ATOM     26  H   UNL     1      18.118  15.848 -20.799  0.00  0.00    +0.000 HD
BRANCH  24  27
ATOM     27  C   UNL     1      18.276  17.335 -22.163  0.00  0.00    +0.000 C 
BRANCH  27  33
ATOM     28  C   UNL     1      16.168  18.637 -25.657  0.00  0.00    +0.000 A 
ATOM     29  C   UNL     1      17.794  17.198 -24.645  0.00  0.00    +0.000 A 
ATOM     30  C   UNL     1      16.632  18.814 -23.284  0.00  0.00    +0.000 A 
ATOM     31  C   UNL     1      15.931  19.246 -24.403  0.00  0.00    +0.000 A 
ATOM     32  C   UNL     1      17.114  17.603 -25.766  0.00  0.00    +0.000 A 
ATOM     33  C   UNL     1      17.563  17.804 -23.406  0.00  0.00    +0.000 A 
ATOM     34  C   UNL     1      15.277  19.323 -26.596  0.00  0.00    +0.000 A 
ATOM     35  C   UNL     1      14.600  20.254 -25.897  0.00  0.00    +0.000 A 
ATOM     36  N   UNL     1      14.962  20.204 -24.577  0.00  0.00    +0.000 N 
BRANCH  36  37
ATOM     37  C   UNL     1      14.391  21.018 -23.491  0.00  0.00    +0.000 C 
BRANCH  37  38
ATOM     38  C   UNL     1      13.595  20.191 -22.494  0.00  0.00    +0.000 A 
ATOM     39  C   UNL     1      13.497  20.614 -21.171  0.00  0.00    +0.000 A 
ATOM     40  C   UNL     1      12.757  19.883 -20.244  0.00  0.00    +0.000 A 
ATOM     41  C   UNL     1      12.093  18.725 -20.632  0.00  0.00    +0.000 A 
ATOM     42  C   UNL     1      12.167  18.307 -21.954  0.00  0.00    +0.000 A 
ATOM     43  C   UNL     1      12.911  19.040 -22.879  0.00  0.00    +0.000 A 
ENDBRANCH  37  38
ENDBRANCH  36  37
ENDBRANCH  27  33
ENDBRANCH  24  27
ENDBRANCH  23  24
ENDBRANCH   5  23
TORSDOF 8
