REMARK  Name = 6e13_ligand
REMARK  13 active torsions:
REMARK  status: ('A' for Active; 'I' for Inactive)
REMARK    1  A    between atoms: C_1  and  C_2
REMARK    2  A    between atoms: C_1  and  O_15
REMARK    3  A    between atoms: C_2  and  C_3
REMARK    4  A    between atoms: C_2  and  N_13
REMARK    5  A    between atoms: C_3  and  C_4
REMARK    6  A    between atoms: C_6  and  S_21
REMARK    7  A    between atoms: C_7  and  C_8
REMARK    8  A    between atoms: C_7  and  S_21
REMARK    9  A    between atoms: C_8  and  C_9
REMARK   10  A    between atoms: C_8  and  N_14
REMARK   11  A    between atoms: C_9  and  O_18
REMARK   12  A    between atoms: C_10  and  O_19
REMARK   13  A    between atoms: C_11  and  O_20
REMARK                            x       y       z     vdW  Elec       q    Type
REMARK                         _______ _______ _______ _____ _____    ______ ____
ROOT
ATOM      1  C   UNK     1     -11.342 -28.690 -11.302  0.00  0.00    +0.000 A 
ATOM      2  C   UNK     1     -12.323 -29.637 -11.037  0.00  0.00    +0.000 A 
ATOM      3  C   UNK     1     -13.653 -29.340 -11.315  0.00  0.00    +0.000 A 
ATOM      4  C   UNK     1     -14.041 -28.087 -11.858  0.00  0.00    +0.000 A 
ATOM      5  C   UNK     1     -13.076 -27.149 -12.117  0.00  0.00    +0.000 A 
ATOM      6  C   UNK     1     -11.722 -27.442 -11.842  0.00  0.00    +0.000 A 
ENDROOT
BRANCH   4   7
ATOM      7  O   UNK     1     -15.391 -27.690 -12.178  0.00  0.00    +0.000 OA
ATOM      8  H   UNK     1     -15.386 -26.797 -12.531  0.00  0.00    +0.000 HD
ENDBRANCH   4   7
BRANCH   5   9
ATOM      9  O   UNK     1     -13.548 -25.928 -12.670  0.00  0.00    +0.000 OA
ATOM     10  H   UNK     1     -12.806 -25.337 -12.817  0.00  0.00    +0.000 HD
ENDBRANCH   5   9
BRANCH   1  11
ATOM     11  C   UNK     1      -9.880 -29.040 -10.969  0.00  0.00    +0.000 C 
BRANCH  11  12
ATOM     12  C   UNK     1      -9.552 -28.558  -9.488  0.00  0.00    +0.000 C 
BRANCH  12  13
ATOM     13  N   UNK     1      -9.766 -27.197  -9.421  0.00  0.00    +0.000 N 
ATOM     14  H   UNK     1      -9.561 -26.868  -8.478  0.00  0.00    +0.000 HD
ATOM     15  H   UNK     1      -9.155 -26.725 -10.088  0.00  0.00    +0.000 HD
ATOM     16  H   UNK     1     -10.740 -26.995  -9.649  0.00  0.00    +0.000 HD
ENDBRANCH  12  13
BRANCH  12  17
ATOM     17  C   UNK     1      -8.182 -28.769  -8.954  0.00  0.00    +0.000 C 
ATOM     18  O   UNK     1      -7.225 -28.096  -9.393  0.00  0.00    +0.000 OA
BRANCH  17  19
ATOM     19  O   UNK     1      -8.010 -29.591  -8.019  0.00  0.00    +0.000 OA
ATOM     20  H   UNK     1      -8.845 -30.016  -7.810  0.00  0.00    +0.000 HD
ENDBRANCH  17  19
ENDBRANCH  12  17
ENDBRANCH  11  12
ENDBRANCH   1  11
BRANCH   3  21
ATOM     21  S   UNK     1     -14.860 -30.602 -10.940  0.00  0.00    +0.000 S 
BRANCH  21  22
ATOM     22  C   UNK     1     -15.502 -30.223  -9.355  0.00  0.00    +0.000 C 
BRANCH  22  23
ATOM     23  C   UNK     1     -16.964 -30.633  -9.341  0.00  0.00    +0.000 C 
BRANCH  23  24
ATOM     24  N   UNK     1     -17.491 -30.311  -8.029  0.00  0.00    +0.000 N 
ATOM     25  H   UNK     1     -18.475 -30.575  -7.985  0.00  0.00    +0.000 HD
ATOM     26  H   UNK     1     -16.968 -30.824  -7.319  0.00  0.00    +0.000 HD
ATOM     27  H   UNK     1     -17.399 -29.309  -7.863  0.00  0.00    +0.000 HD
ENDBRANCH  23  24
BRANCH  23  28
ATOM     28  C   UNK     1     -17.828 -29.980 -10.482  0.00  0.00    +0.000 C 
ATOM     29  O   UNK     1     -18.838 -30.629 -10.912  0.00  0.00    +0.000 OA
BRANCH  28  30
ATOM     30  O   UNK     1     -17.547 -28.829 -10.971  0.00  0.00    +0.000 OA
ATOM     31  H   UNK     1     -16.763 -28.482 -10.539  0.00  0.00    +0.000 HD
ENDBRANCH  28  30
ENDBRANCH  23  28
ENDBRANCH  22  23
ENDBRANCH  21  22
ENDBRANCH   3  21
TORSDOF 13
