REMARK  Name = 6gbw_ligand
REMARK  14 active torsions:
REMARK  status: ('A' for Active; 'I' for Inactive)
REMARK    1  A    between atoms: C_4  and  C_16
REMARK    2  A    between atoms: C_5  and  C_14
REMARK    3  A    between atoms: C_11  and  C_12
REMARK    4  A    between atoms: C_12  and  N_13
REMARK    5  A    between atoms: C_14  and  N_15
REMARK    6  A    between atoms: C_21  and  C_22
REMARK    7  A    between atoms: C_22  and  C_23
REMARK    8  A    between atoms: C_22  and  N_30
REMARK    9  A    between atoms: C_23  and  C_24
REMARK   10  A    between atoms: C_24  and  C_25
REMARK   11  A    between atoms: C_25  and  N_26
REMARK   12  A    between atoms: N_30  and  S_31
REMARK   13  A    between atoms: S_31  and  C_34
REMARK   14  A    between atoms: C_34  and  C_35
REMARK                            x       y       z     vdW  Elec       q    Type
REMARK                         _______ _______ _______ _____ _____    ______ ____
ROOT
ATOM      1  O   UNL     1      15.983 -12.817  22.649  0.00  0.00    +0.000 OA
ATOM      2  C   UNL     1      17.520 -11.469  20.812  0.00  0.00    +0.000 C 
ATOM      3  C   UNL     1      18.494 -11.361  19.632  0.00  0.00    +0.000 C 
ATOM      4  C   UNL     1      19.681 -12.234  20.078  0.00  0.00    +0.000 C 
ATOM      5  C   UNL     1      19.027 -13.400  20.787  0.00  0.00    +0.000 C 
ATOM      6  N   UNL     1      17.793 -12.811  21.340  0.00  0.00    +0.000 N 
ATOM      7  C   UNL     1      16.886 -13.437  22.100  0.00  0.00    +0.000 C 
ENDROOT
BRANCH   2  10
ATOM      8  O   UNL     1      15.516 -12.245  19.713  0.00  0.00    +0.000 OA
ATOM      9  N   UNL     1      15.460 -10.213  20.687  0.00  0.00    +0.000 N 
ATOM     10  C   UNL     1      16.070 -11.349  20.351  0.00  0.00    +0.000 C 
ATOM     11  H   UNL     1      15.990  -9.503  21.193  0.00  0.00    +0.000 HD
BRANCH   9  12
ATOM     12  C   UNL     1      14.066  -9.946  20.360  0.00  0.00    +0.000 C 
BRANCH  12  13
ATOM     13  C   UNL     1      13.169  -9.955  21.575  0.00  0.00    +0.000 A 
ATOM     14 CL   UNL     1      12.182  -7.418  24.503  0.00  0.00    +0.000 Cl
ATOM     15  C   UNL     1      12.229  -8.823  23.470  0.00  0.00    +0.000 A 
ATOM     16  C   UNL     1      13.096  -8.836  22.403  0.00  0.00    +0.000 A 
ATOM     17  C   UNL     1      11.412  -9.892  23.744  0.00  0.00    +0.000 A 
ATOM     18  C   UNL     1      11.493 -11.017  22.943  0.00  0.00    +0.000 A 
ATOM     19  C   UNL     1      12.370 -11.075  21.864  0.00  0.00    +0.000 A 
BRANCH  19  20
ATOM     20  C   UNL     1      12.461 -12.380  21.045  0.00  0.00    +0.000 C 
BRANCH  20  21
ATOM     21  N   UNL     1      13.052 -13.489  21.844  0.00  0.00    +0.000 N 
ATOM     22  H   UNL     1      13.096 -14.332  21.272  0.00  0.00    +0.000 HD
ATOM     23  H   UNL     1      13.992 -13.229  22.141  0.00  0.00    +0.000 HD
ATOM     24  H   UNL     1      12.471 -13.663  22.664  0.00  0.00    +0.000 HD
ENDBRANCH  20  21
ENDBRANCH  19  20
ENDBRANCH  12  13
ENDBRANCH   9  12
ENDBRANCH   2  10
BRANCH   7  25
ATOM     25  C   UNL     1      17.064 -14.952  22.295  0.00  0.00    +0.000 C 
BRANCH  25  26
ATOM     26  N   UNL     1      16.666 -15.216  23.668  0.00  0.00    +0.000 NA
ATOM     27  H   UNL     1      15.922 -14.654  24.082  0.00  0.00    +0.000 HD
BRANCH  26  28
ATOM     28  S   UNL     1      17.364 -16.372  24.564  0.00  0.00    +0.000 S 
ATOM     29  O   UNL     1      16.317 -17.013  25.304  0.00  0.00    +0.000 OA
ATOM     30  O   UNL     1      18.186 -17.157  23.688  0.00  0.00    +0.000 OA
BRANCH  28  31
ATOM     31  C   UNL     1      18.383 -15.521  25.759  0.00  0.00    +0.000 C 
BRANCH  31  33
ATOM     32  C   UNL     1      19.450 -13.330  25.142  0.00  0.00    +0.000 A 
ATOM     33  C   UNL     1      19.485 -14.720  25.127  0.00  0.00    +0.000 A 
ATOM     34  C   UNL     1      20.563 -15.348  24.516  0.00  0.00    +0.000 A 
ATOM     35  C   UNL     1      21.580 -14.605  23.938  0.00  0.00    +0.000 A 
ATOM     36  C   UNL     1      21.532 -13.227  23.963  0.00  0.00    +0.000 A 
ATOM     37  C   UNL     1      20.466 -12.590  24.563  0.00  0.00    +0.000 A 
ENDBRANCH  31  33
ENDBRANCH  28  31
ENDBRANCH  26  28
ENDBRANCH  25  26
BRANCH  25  38
ATOM     38  C   UNL     1      16.127 -15.704  21.328  0.00  0.00    +0.000 C 
BRANCH  38  39
ATOM     39  C   UNL     1      16.642 -16.995  20.690  0.00  0.00    +0.000 C 
BRANCH  39  40
ATOM     40  C   UNL     1      15.638 -17.570  19.694  0.00  0.00    +0.000 C 
BRANCH  40  41
ATOM     41  N   UNL     1      15.480 -16.747  18.499  0.00  0.00    +0.000 N 
ATOM     42  C   UNL     1      16.087 -17.238  17.280  0.00  0.00    +0.000 C 
ATOM     43  N   UNL     1      16.900 -18.376  17.438  0.00  0.00    +0.000 N 
ATOM     44  N   UNL     1      15.857 -16.623  16.147  0.00  0.00    +0.000 NA
ATOM     45  H   UNL     1      14.966 -15.867  18.522  0.00  0.00    +0.000 HD
ATOM     46  H   UNL     1      17.366 -18.786  16.629  0.00  0.00    +0.000 HD
ATOM     47  H   UNL     1      17.023 -18.791  18.362  0.00  0.00    +0.000 HD
ATOM     48  H   UNL     1      15.252 -15.802  16.126  0.00  0.00    +0.000 HD
ENDBRANCH  40  41
ENDBRANCH  39  40
ENDBRANCH  38  39
ENDBRANCH  25  38
ENDBRANCH   7  25
TORSDOF 14
