REMARK  Name = 6mo8_ligand
REMARK  6 active torsions:
REMARK  status: ('A' for Active; 'I' for Inactive)
REMARK    1  A    between atoms: C_5  and  C_18
REMARK    2  A    between atoms: C_6  and  C_7
REMARK    3  A    between atoms: C_8  and  C_13
REMARK    4  A    between atoms: C_11  and  C_12
REMARK    5  A    between atoms: C_19  and  C_24
REMARK    6  A    between atoms: C_22  and  C_23
REMARK                            x       y       z     vdW  Elec       q    Type
REMARK                         _______ _______ _______ _____ _____    ______ ____
ROOT
ATOM      1  C   UNL     1      78.081  11.318 -10.443  0.00  0.00    +0.000 A 
ATOM      2  C   UNL     1      76.204   9.858  -9.955  0.00  0.00    +0.000 A 
ATOM      3  C   UNL     1      75.328  10.704 -10.635  0.00  0.00    +0.000 A 
ATOM      4  C   UNL     1      75.835  11.878 -11.231  0.00  0.00    +0.000 A 
ATOM      5  C   UNL     1      77.219  12.180 -11.135  0.00  0.00    +0.000 A 
ATOM      6  C   UNL     1      77.574  10.165  -9.858  0.00  0.00    +0.000 A 
ATOM      7  N   UNL     1      74.027  10.364 -10.694  0.00  0.00    +0.000 NA
ATOM      8  C   UNL     1      73.178  11.181 -11.362  0.00  0.00    +0.000 A 
ATOM      9  C   UNL     1      73.561  12.349 -11.983  0.00  0.00    +0.000 A 
ATOM     10  C   UNL     1      74.902  12.698 -11.915  0.00  0.00    +0.000 A 
ENDROOT
BRANCH   6  11
ATOM     11  C   UNL     1      78.462   9.270  -9.153  0.00  0.00    +0.000 A 
ATOM     12  C   UNL     1      79.565   8.676  -9.722  0.00  0.00    +0.000 A 
ATOM     13  O   UNL     1      80.174   7.884  -8.800  0.00  0.00    +0.000 OA
ATOM     14  N   UNL     1      79.473   7.953  -7.607  0.00  0.00    +0.000 NA
ATOM     15  C   UNL     1      78.444   8.787  -7.828  0.00  0.00    +0.000 A 
ATOM     16  C   UNL     1      77.473   9.084  -6.753  0.00  0.00    +0.000 C 
ATOM     17  C   UNL     1      80.184   8.727 -11.054  0.00  0.00    +0.000 C 
ENDBRANCH   6  11
BRANCH   5  18
ATOM     18  C   UNL     1      77.779  13.382 -11.725  0.00  0.00    +0.000 A 
ATOM     19  C   UNL     1      78.596  13.423 -12.834  0.00  0.00    +0.000 A 
ATOM     20  O   UNL     1      78.926  14.719 -13.095  0.00  0.00    +0.000 OA
ATOM     21  N   UNL     1      78.331  15.552 -12.156  0.00  0.00    +0.000 NA
ATOM     22  C   UNL     1      77.641  14.744 -11.340  0.00  0.00    +0.000 A 
ATOM     23  C   UNL     1      76.874  15.302 -10.198  0.00  0.00    +0.000 C 
ATOM     24  C   UNL     1      79.153  12.406 -13.748  0.00  0.00    +0.000 C 
ENDBRANCH   5  18
TORSDOF 2
