REMARK  Name = 6gge_ligand
REMARK  7 active torsions:
REMARK  status: ('A' for Active; 'I' for Inactive)
REMARK    1  A    between atoms: N_1  and  C_15
REMARK    2  A    between atoms: C_5  and  C_8
REMARK    3  A    between atoms: C_8  and  N_23
REMARK    4  A    between atoms: C_13  and  C_16
REMARK    5  A    between atoms: C_15  and  C_22
REMARK    6  A    between atoms: C_19  and  C_21
REMARK    7  A    between atoms: N_23  and  C_24
REMARK                            x       y       z     vdW  Elec       q    Type
REMARK                         _______ _______ _______ _____ _____    ______ ____
ROOT
ATOM      1  N   UNL     1      91.615  94.296 -42.450  0.00  0.00    +0.000 N 
ATOM      2  C   UNL     1      91.555  95.617 -41.993  0.00  0.00    +0.000 A 
ATOM      3  C   UNL     1      91.222  96.477 -43.080  0.00  0.00    +0.000 A 
ATOM      4  C   UNL     1      91.111  97.866 -42.868  0.00  0.00    +0.000 A 
ATOM      5  C   UNL     1      91.322  98.403 -41.583  0.00  0.00    +0.000 A 
ATOM      6  C   UNL     1      91.668  97.538 -40.515  0.00  0.00    +0.000 A 
ATOM      7  C   UNL     1      91.777  96.152 -40.710  0.00  0.00    +0.000 A 
ATOM      8  C   UNL     1      91.317  94.310 -43.811  0.00  0.00    +0.000 A 
ATOM      9  C   UNL     1      91.071  95.646 -44.228  0.00  0.00    +0.000 A 
ATOM     10  C   UNL     1      90.751  95.884 -45.576  0.00  0.00    +0.000 A 
ATOM     11  C   UNL     1      90.676  94.814 -46.479  0.00  0.00    +0.000 A 
ATOM     12  C   UNL     1      90.912  93.481 -46.076  0.00  0.00    +0.000 A 
ATOM     13  C   UNL     1      91.251  93.245 -44.727  0.00  0.00    +0.000 A 
ENDROOT
BRANCH  12  14
ATOM     14  C   UNL     1      90.851  92.379 -47.042  0.00  0.00    +0.000 A 
ATOM     15  C   UNL     1      90.448  92.393 -48.356  0.00  0.00    +0.000 A 
ATOM     16  C   UNL     1      90.557  91.123 -48.990  0.00  0.00    +0.000 A 
ATOM     17  C   UNL     1      91.052  90.145 -48.167  0.00  0.00    +0.000 A 
ATOM     18  S   UNL     1      91.392  90.786 -46.579  0.00  0.00    +0.000 S 
ATOM     19  C   UNL     1      91.287  88.714 -48.527  0.00  0.00    +0.000 C 
ENDBRANCH  12  14
BRANCH   1  20
ATOM     20  C   UNL     1      91.924  93.103 -41.683  0.00  0.00    +0.000 C 
ATOM     21  C   UNL     1      93.429  92.822 -41.651  0.00  0.00    +0.000 C 
ENDBRANCH   1  20
BRANCH   5  22
ATOM     22  C   UNL     1      91.202  99.898 -41.367  0.00  0.00    +0.000 C 
BRANCH  22  23
ATOM     23  N   UNL     1      89.835 100.252 -40.940  0.00  0.00    +0.000 N 
ATOM     24  C   UNL     1      89.633 101.700 -40.693  0.00  0.00    +0.000 C 
ATOM     25  H   UNL     1      89.659  99.769 -40.059  0.00  0.00    +0.000 HD
ATOM     26  H   UNL     1      89.204  99.984 -41.696  0.00  0.00    +0.000 HD
ENDBRANCH  22  23
ENDBRANCH   5  22
TORSDOF 4
