REMARK  Name = 6o5g_ligand
REMARK  2 active torsions:
REMARK  status: ('A' for Active; 'I' for Inactive)
REMARK    1  A    between atoms: C_1  and  C_2
REMARK    2  A    between atoms: C_1  and  C_3
REMARK                            x       y       z     vdW  Elec       q    Type
REMARK                         _______ _______ _______ _____ _____    ______ ____
ROOT
ATOM      1  C   UNL     1       2.605  59.342 114.888  0.00  0.00    +0.000 C 
ATOM      2  C   UNL     1       1.710  58.167 114.392  0.00  0.00    +0.000 C 
ATOM      3  C   UNL     1       1.694  60.241 115.799  0.00  0.00    +0.000 C 
ATOM      4  C   UNL     1       3.719  58.667 115.800  0.00  0.00    +0.000 C 
ATOM      5  C   UNL     1       3.243  58.607 117.246  0.00  0.00    +0.000 C 
ATOM      6  C   UNL     1       5.160  59.272 115.722  0.00  0.00    +0.000 C 
ATOM      7  C   UNL     1       5.571  59.146 114.272  0.00  0.00    +0.000 C 
ATOM      8  N   UNL     1       6.017  58.439 116.572  0.00  0.00    +0.000 N 
ATOM      9  C   UNL     1       5.612  58.392 117.947  0.00  0.00    +0.000 C 
ATOM     10  C   UNL     1       4.296  59.192 118.128  0.00  0.00    +0.000 C 
ATOM     11  C   UNL     1       3.897  59.252 119.587  0.00  0.00    +0.000 C 
ATOM     12  C   UNL     1       5.308  61.173 118.897  0.00  0.00    +0.000 C 
ATOM     13  C   UNL     1       5.056  62.370 110.050  0.00  0.00    +0.000 A 
ATOM     14  C   UNL     1       3.862  62.165 110.687  0.00  0.00    +0.000 A 
ATOM     15  C   UNL     1       3.838  61.327 111.822  0.00  0.00    +0.000 A 
ATOM     16  C   UNL     1       5.051  60.719 112.284  0.00  0.00    +0.000 A 
ATOM     17  C   UNL     1       6.247  60.969 111.583  0.00  0.00    +0.000 A 
ATOM     18  C   UNL     1       6.240  61.783 110.485  0.00  0.00    +0.000 A 
ATOM     19  C   UNL     1       4.671  59.950 113.435  0.00  0.00    +0.000 A 
ATOM     20  C   UNL     1       3.335  60.048 113.703  0.00  0.00    +0.000 A 
ATOM     21  C   UNL     1       4.670  60.469 120.122  0.00  0.00    +0.000 C 
ATOM     22  C   UNL     1       5.364  60.663 116.454  0.00  0.00    +0.000 C 
ATOM     23  N   UNL     1       4.584  60.616 117.733  0.00  0.00    +0.000 N 
ATOM     24  N   UNL     1       2.796  60.902 112.704  0.00  0.00    +0.000 NA
ATOM     25  O   UNL     1       6.227  57.812 118.764  0.00  0.00    +0.000 OA
ATOM     26 BR   UNL     1       5.159  63.497 108.506  0.00  0.00    +0.000 Br
ATOM     27 CL   UNL     1       7.686  62.126 109.596  0.00  0.00    +0.000 Cl
ATOM     28  H   UNL     1       6.830  57.937 116.216  0.00  0.00    +0.000 HD
ATOM     29  H   UNL     1       3.748  61.165 117.533  0.00  0.00    +0.000 HD
ENDROOT
TORSDOF 0
