REMARK  Name = 6bqd_ligand
REMARK  7 active torsions:
REMARK  status: ('A' for Active; 'I' for Inactive)
REMARK    1  A    between atoms: C_1  and  C_9
REMARK    2  A    between atoms: C_1  and  N_12
REMARK    3  A    between atoms: C_4  and  C_15
REMARK    4  A    between atoms: C_10  and  C_11
REMARK    5  A    between atoms: C_19  and  C_21
REMARK    6  A    between atoms: N_23  and  C_24
REMARK    7  A    between atoms: N_23  and  C_25
REMARK                            x       y       z     vdW  Elec       q    Type
REMARK                         _______ _______ _______ _____ _____    ______ ____
ROOT
ATOM      1  C   UNL     1       2.232   7.222  84.016  0.00  0.00    +0.000 C 
ATOM      2  C   UNL     1       3.204   9.362  83.665  0.00  0.00    +0.000 C 
ATOM      3  C   UNL     1       2.023  10.003  83.921  0.00  0.00    +0.000 C 
ATOM      4  C   UNL     1       0.838   9.186  84.262  0.00  0.00    +0.000 C 
ATOM      5  C   UNL     1      -0.521   9.453  84.591  0.00  0.00    +0.000 C 
ATOM      6  C   UNL     1      -1.159   8.270  84.806  0.00  0.00    +0.000 C 
ATOM      7  C   UNL     1       0.976   7.787  84.308  0.00  0.00    +0.000 C 
ATOM      8  N   UNL     1       3.296   7.995  83.715  0.00  0.00    +0.000 N 
ATOM      9  N   UNL     1      -0.261   7.258  84.631  0.00  0.00    +0.000 NA
ATOM     10  O   UNL     1       2.357   6.012  84.056  0.00  0.00    +0.000 OA
ENDROOT
BRANCH   3  11
ATOM     11  C   UNL     1       1.934  11.498  83.884  0.00  0.00    +0.000 A 
ATOM     12  C   UNL     1       0.805  12.176  83.386  0.00  0.00    +0.000 A 
ATOM     13  C   UNL     1       0.757  13.571  83.389  0.00  0.00    +0.000 A 
ATOM     14  C   UNL     1       1.830  14.292  83.920  0.00  0.00    +0.000 A 
ATOM     15  C   UNL     1       2.967  13.629  84.411  0.00  0.00    +0.000 A 
ATOM     16  C   UNL     1       3.007  12.231  84.405  0.00  0.00    +0.000 A 
BRANCH  15  17
ATOM     17  C   UNL     1       4.126  14.357  84.994  0.00  0.00    +0.000 C 
ATOM     18  O   UNL     1       4.362  14.268  86.195  0.00  0.00    +0.000 OA
ATOM     19  N   UNL     1       4.946  15.123  84.272  0.00  0.00    +0.000 N 
ATOM     20  C   UNL     1       6.073  15.763  84.982  0.00  0.00    +0.000 C 
ATOM     21  C   UNL     1       4.760  15.268  82.826  0.00  0.00    +0.000 C 
ENDBRANCH  15  17
ENDBRANCH   3  11
BRANCH   8  22
ATOM     22  C   UNL     1       4.558   7.321  83.382  0.00  0.00    +0.000 C 
BRANCH  22  23
ATOM     23  C   UNL     1       5.573   7.477  84.450  0.00  0.00    +0.000 C 
ATOM     24  C   UNL     1       7.769   8.201  85.176  0.00  0.00    +0.000 C 
ATOM     25  C   UNL     1       6.711   8.010  84.122  0.00  0.00    +0.000 C 
ENDBRANCH  22  23
ENDBRANCH   8  22
TORSDOF 4
