REMARK  Name = 6j9y_ligand
REMARK  12 active torsions:
REMARK  status: ('A' for Active; 'I' for Inactive)
REMARK    1  A    between atoms: C_1  and  O_7
REMARK    2  A    between atoms: C_2  and  O_8
REMARK    3  A    between atoms: C_3  and  O_9
REMARK    4  A    between atoms: C_4  and  O_10
REMARK    5  A    between atoms: C_5  and  C_6
REMARK    6  A    between atoms: C_6  and  O_12
REMARK    7  A    between atoms: O_7  and  C_16
REMARK    8  A    between atoms: C_13  and  O_19
REMARK    9  A    between atoms: C_14  and  O_20
REMARK   10  A    between atoms: C_15  and  O_21
REMARK   11  A    between atoms: C_17  and  C_18
REMARK   12  A    between atoms: C_18  and  O_23
REMARK                            x       y       z     vdW  Elec       q    Type
REMARK                         _______ _______ _______ _____ _____    ______ ____
ROOT
ATOM      1  O   UNL     1      -6.857 -33.250 -15.215  0.00  0.00    +0.000 OA
ENDROOT
BRANCH   1   2
ATOM      2  C   UNL     1      -6.568 -32.490 -14.056  0.00  0.00    +0.000 C 
ATOM      3  C   UNL     1      -7.894 -32.163 -13.311  0.00  0.00    +0.000 C 
ATOM      4  C   UNL     1      -8.723 -31.196 -14.111  0.00  0.00    +0.000 C 
ATOM      5  C   UNL     1      -7.927 -29.917 -14.287  0.00  0.00    +0.000 C 
ATOM      6  C   UNL     1      -6.634 -30.263 -15.039  0.00  0.00    +0.000 C 
ATOM      7  O   UNL     1      -5.895 -31.250 -14.283  0.00  0.00    +0.000 OA
BRANCH   3   8
ATOM      8  O   UNL     1      -8.680 -33.357 -13.146  0.00  0.00    +0.000 OA
ATOM      9  H   UNL     1      -8.180 -34.000 -12.637  0.00  0.00    +0.000 HD
ENDBRANCH   3   8
BRANCH   4  10
ATOM     10  O   UNL     1      -9.930 -30.859 -13.348  0.00  0.00    +0.000 OA
ATOM     11  H   UNL     1     -10.457 -31.651 -13.219  0.00  0.00    +0.000 HD
ENDBRANCH   4  10
BRANCH   5  12
ATOM     12  O   UNL     1      -8.651 -28.949 -15.049  0.00  0.00    +0.000 OA
ATOM     13  H   UNL     1      -9.463 -28.724 -14.589  0.00  0.00    +0.000 HD
ENDBRANCH   5  12
BRANCH   6  14
ATOM     14  C   UNL     1      -5.730 -29.074 -15.091  0.00  0.00    +0.000 C 
BRANCH  14  15
ATOM     15  O   UNL     1      -4.557 -29.250 -15.921  0.00  0.00    +0.000 OA
ATOM     16  H   UNL     1      -4.030 -28.448 -15.903  0.00  0.00    +0.000 HD
ENDBRANCH  14  15
ENDBRANCH   6  14
ENDBRANCH   1   2
BRANCH   1  20
ATOM     17  C   UNL     1      -5.736 -36.670 -16.903  0.00  0.00    +0.000 C 
ATOM     18  C   UNL     1      -5.397 -36.576 -15.487  0.00  0.00    +0.000 C 
ATOM     19  C   UNL     1      -6.085 -35.457 -14.853  0.00  0.00    +0.000 C 
ATOM     20  C   UNL     1      -5.792 -34.125 -15.614  0.00  0.00    +0.000 C 
ATOM     21  C   UNL     1      -6.174 -34.400 -17.045  0.00  0.00    +0.000 C 
ATOM     22  O   UNL     1      -5.484 -35.455 -17.640  0.00  0.00    +0.000 OA
BRANCH  17  23
ATOM     23  O   UNL     1      -7.015 -37.217 -16.999  0.00  0.00    +0.000 OA
ATOM     24  H   UNL     1      -7.262 -37.289 -17.924  0.00  0.00    +0.000 HD
ENDBRANCH  17  23
BRANCH  18  25
ATOM     25  O   UNL     1      -5.610 -37.853 -14.747  0.00  0.00    +0.000 OA
ATOM     26  H   UNL     1      -5.371 -37.731 -13.825  0.00  0.00    +0.000 HD
ENDBRANCH  18  25
BRANCH  19  27
ATOM     27  O   UNL     1      -5.619 -35.482 -13.460  0.00  0.00    +0.000 OA
ATOM     28  H   UNL     1      -6.033 -34.766 -12.972  0.00  0.00    +0.000 HD
ENDBRANCH  19  27
BRANCH  21  29
ATOM     29  C   UNL     1      -6.074 -33.276 -17.952  0.00  0.00    +0.000 C 
BRANCH  29  30
ATOM     30  O   UNL     1      -4.613 -32.942 -17.875  0.00  0.00    +0.000 OA
ATOM     31  H   UNL     1      -4.426 -32.195 -18.448  0.00  0.00    +0.000 HD
ENDBRANCH  29  30
ENDBRANCH  21  29
ENDBRANCH   1  20
TORSDOF 12
