REMARK  Name = 6qlr_ligand
REMARK  9 active torsions:
REMARK  status: ('A' for Active; 'I' for Inactive)
REMARK    1  A    between atoms: C_1  and  C_18
REMARK    2  A    between atoms: C_5  and  C_6
REMARK    3  A    between atoms: C_11  and  S_31
REMARK    4  A    between atoms: C_12  and  S_31
REMARK    5  A    between atoms: C_13  and  C_14
REMARK    6  A    between atoms: C_14  and  O_28
REMARK    7  A    between atoms: C_15  and  O_29
REMARK    8  A    between atoms: C_16  and  N_24
REMARK    9  A    between atoms: C_21  and  O_30
REMARK                            x       y       z     vdW  Elec       q    Type
REMARK                         _______ _______ _______ _____ _____    ______ ____
ROOT
ATOM      1  C   UNL     1     -19.742   8.750  -1.777  0.00  0.00    +0.000 C 
ATOM      2  C   UNL     1     -19.682   6.570  -0.963  0.00  0.00    +0.000 C 
ATOM      3  C   UNL     1     -18.152   6.681  -0.647  0.00  0.00    +0.000 C 
ATOM      4  C   UNL     1     -17.562   7.751  -1.611  0.00  0.00    +0.000 C 
ATOM      5  C   UNL     1     -18.263   9.103  -1.487  0.00  0.00    +0.000 C 
ATOM      6  O   UNL     1     -20.250   7.855  -0.805  0.00  0.00    +0.000 OA
ENDROOT
BRANCH   4   9
ATOM      7  C   UNL     1     -15.432   8.262  -0.293  0.00  0.00    +0.000 A 
ATOM      8  C   UNL     1     -14.084   8.178  -0.648  0.00  0.00    +0.000 A 
ATOM      9  N   UNL     1     -16.140   7.856  -1.423  0.00  0.00    +0.000 N 
ATOM     10  N   UNL     1     -14.076   7.742  -1.980  0.00  0.00    +0.000 NA
ATOM     11  N   UNL     1     -15.258   7.558  -2.405  0.00  0.00    +0.000 NA
BRANCH   8  12
ATOM     12  C   UNL     1     -12.904   8.454   0.132  0.00  0.00    +0.000 A 
ATOM     13  C   UNL     1     -11.650   8.617  -0.480  0.00  0.00    +0.000 A 
ATOM     14  C   UNL     1     -10.513   8.868   0.281  0.00  0.00    +0.000 A 
ATOM     15  C   UNL     1     -10.553   8.937   1.677  0.00  0.00    +0.000 A 
ATOM     16  C   UNL     1     -11.800   8.745   2.270  0.00  0.00    +0.000 A 
ATOM     17  C   UNL     1     -12.945   8.509   1.522  0.00  0.00    +0.000 A 
ATOM     18  F   UNL     1      -9.380   9.026  -0.331  0.00  0.00    +0.000 F 
ATOM     19  F   UNL     1     -11.907   8.784   3.580  0.00  0.00    +0.000 F 
ENDBRANCH   8  12
ENDBRANCH   4   9
BRANCH   3  20
ATOM     20  O   UNL     1     -17.966   7.098   0.669  0.00  0.00    +0.000 OA
ATOM     21  H   UNL     1     -17.026   7.163   0.853  0.00  0.00    +0.000 HD
ENDBRANCH   3  20
BRANCH   5  22
ATOM     22  O   UNL     1     -17.777   9.910  -2.526  0.00  0.00    +0.000 OA
ATOM     23  H   UNL     1     -16.860  10.134  -2.354  0.00  0.00    +0.000 HD
ENDBRANCH   5  22
BRANCH   2  24
ATOM     24  C   UNL     1     -20.378   5.607   0.027  0.00  0.00    +0.000 C 
BRANCH  24  25
ATOM     25  O   UNL     1     -21.719   5.460  -0.362  0.00  0.00    +0.000 OA
ATOM     26  H   UNL     1     -22.164   4.864   0.245  0.00  0.00    +0.000 HD
ENDBRANCH  24  25
ENDBRANCH   2  24
BRANCH   1  27
ATOM     27  S   UNL     1     -20.751  10.259  -1.769  0.00  0.00    +0.000 S 
BRANCH  27  34
ATOM     28  C   UNL     1     -25.591   9.164  -5.484  0.00  0.00    +0.000 C 
ATOM     29  C   UNL     1     -24.416   9.415  -4.593  0.00  0.00    +0.000 A 
ATOM     30  C   UNL     1     -23.606   8.388  -4.123  0.00  0.00    +0.000 A 
ATOM     31  C   UNL     1     -22.516   8.647  -3.274  0.00  0.00    +0.000 A 
ATOM     32  C   UNL     1     -24.095  10.714  -4.170  0.00  0.00    +0.000 A 
ATOM     33  C   UNL     1     -23.001  10.979  -3.319  0.00  0.00    +0.000 A 
ATOM     34  C   UNL     1     -22.188   9.942  -2.851  0.00  0.00    +0.000 A 
ENDBRANCH  27  34
ENDBRANCH   1  27
TORSDOF 8
