REMARK  Name = 6nxz_ligand
REMARK  7 active torsions:
REMARK  status: ('A' for Active; 'I' for Inactive)
REMARK    1  A    between atoms: O_1  and  C_2
REMARK    2  A    between atoms: C_2  and  C_3
REMARK    3  A    between atoms: C_3  and  O_6
REMARK    4  A    between atoms: C_3  and  C_7
REMARK    5  A    between atoms: O_4  and  C_5
REMARK    6  A    between atoms: O_4  and  C_8
REMARK    7  A    between atoms: C_7  and  C_8
REMARK                            x       y       z     vdW  Elec       q    Type
REMARK                         _______ _______ _______ _____ _____    ______ ____
ROOT
ATOM      1  C   UNL     1       0.239   0.812   3.383  0.00  0.00    +0.000 C 
ENDROOT
BRANCH   1   2
ATOM      2  O   UNL     1       0.193   1.693   2.233  0.00  0.00    +0.000 OA
ATOM      3  H   UNL     1      -0.709   1.992   2.096  0.00  0.00    +0.000 HD
ENDBRANCH   1   2
BRANCH   1   4
ATOM      4  C   UNL     1      -0.818  -0.285   3.349  0.00  0.00    +0.000 C 
BRANCH   4   5
ATOM      5  O   UNL     1      -2.158   0.256   3.447  0.00  0.00    +0.000 OA
ATOM      6  H   UNL     1      -2.795  -0.462   3.422  0.00  0.00    +0.000 HD
ENDBRANCH   4   5
ENDBRANCH   1   4
BRANCH   1   7
ATOM      7  C   UNL     1       1.684   0.340   3.593  0.00  0.00    +0.000 C 
BRANCH   7   8
ATOM      8  C   UNL     1       2.243  -0.844   2.834  0.00  0.00    +0.000 C 
BRANCH   8   9
ATOM      9  O   UNL     1       3.684  -0.783   2.881  0.00  0.00    +0.000 OA
ATOM     10  C   UNL     1       4.406  -1.925   2.608  0.00  0.00    +0.000 C 
ENDBRANCH   8   9
ENDBRANCH   7   8
ENDBRANCH   1   7
TORSDOF 6
