REMARK  Name = 6n94_ligand
REMARK  31 active torsions:
REMARK  status: ('A' for Active; 'I' for Inactive)
REMARK    1  A    between atoms: C_6  and  N_7
REMARK    2  A    between atoms: N_10  and  C_11
REMARK    3  A    between atoms: C_12  and  O_13
REMARK    4  A    between atoms: C_14  and  O_15
REMARK    5  A    between atoms: O_15  and  P_21
REMARK    6  A    between atoms: C_16  and  C_18
REMARK    7  A    between atoms: C_18  and  O_19
REMARK    8  A    between atoms: O_19  and  P_24
REMARK    9  A    between atoms: P_21  and  O_22
REMARK   10  A    between atoms: P_21  and  O_23
REMARK   11  A    between atoms: P_24  and  O_25
REMARK   12  A    between atoms: P_24  and  O_27
REMARK   13  A    between atoms: O_27  and  P_28
REMARK   14  A    between atoms: P_28  and  O_30
REMARK   15  A    between atoms: P_28  and  O_31
REMARK   16  A    between atoms: O_31  and  C_32
REMARK   17  A    between atoms: C_32  and  C_33
REMARK   18  A    between atoms: C_33  and  C_34
REMARK   19  A    between atoms: C_33  and  C_35
REMARK   20  A    between atoms: C_33  and  C_36
REMARK   21  A    between atoms: C_36  and  O_37
REMARK   22  A    between atoms: C_36  and  C_38
REMARK   23  A    between atoms: N_40  and  C_41
REMARK   24  A    between atoms: C_41  and  C_42
REMARK   25  A    between atoms: C_42  and  C_43
REMARK   26  A    between atoms: N_45  and  C_46
REMARK   27  A    between atoms: C_46  and  C_47
REMARK   28  A    between atoms: C_47  and  N_48
REMARK   29  A    between atoms: C_49  and  C_51
REMARK   30  A    between atoms: C_51  and  C_52
REMARK   31  A    between atoms: C_51  and  N_53
REMARK                            x       y       z     vdW  Elec       q    Type
REMARK                         _______ _______ _______ _____ _____    ______ ____
ROOT
ATOM      1  O   UNL     1      18.904  24.051  21.181  0.00  0.00    +0.000 OA
ENDROOT
BRANCH   1   2
ATOM      2  P   UNL     1      18.344  22.828  22.086  0.00  0.00    +0.000 P 
ATOM      3  O   UNL     1      16.947  22.475  21.696  0.00  0.00    +0.000 OA
BRANCH   2   4
ATOM      4  O   UNL     1      18.422  23.471  23.434  0.00  0.00    +0.000 OA
ATOM      5  H   UNL     1      19.337  23.677  23.636  0.00  0.00    +0.000 HD
ENDBRANCH   2   4
BRANCH   2   6
ATOM      6  O   UNL     1      19.162  21.430  22.154  0.00  0.00    +0.000 OA
BRANCH   6   7
ATOM      7  C   UNL     1      20.511  21.455  22.512  0.00  0.00    +0.000 C 
BRANCH   7   8
ATOM      8  C   UNL     1      21.114  20.193  21.973  0.00  0.00    +0.000 C 
ATOM      9  C   UNL     1      20.547  19.011  22.750  0.00  0.00    +0.000 C 
ATOM     10  C   UNL     1      22.607  20.309  22.257  0.00  0.00    +0.000 C 
BRANCH   8  11
ATOM     11  C   UNL     1      20.847  20.061  20.456  0.00  0.00    +0.000 C 
BRANCH  11  12
ATOM     12  C   UNL     1      21.658  18.968  19.866  0.00  0.00    +0.000 C 
ATOM     13  O   UNL     1      21.456  17.781  20.166  0.00  0.00    +0.000 OA
ATOM     14  N   UNL     1      22.675  19.364  19.112  0.00  0.00    +0.000 N 
ATOM     15  H   UNL     1      22.817  20.357  18.927  0.00  0.00    +0.000 HD
BRANCH  14  16
ATOM     16  C   UNL     1      23.581  18.388  18.553  0.00  0.00    +0.000 C 
BRANCH  16  17
ATOM     17  C   UNL     1      24.441  17.772  19.625  0.00  0.00    +0.000 C 
BRANCH  17  18
ATOM     18  C   UNL     1      25.412  16.812  18.979  0.00  0.00    +0.000 C 
ATOM     19  O   UNL     1      24.981  15.789  18.511  0.00  0.00    +0.000 OA
ATOM     20  N   UNL     1      26.696  17.130  18.928  0.00  0.00    +0.000 N 
ATOM     21  H   UNL     1      26.977  18.048  19.272  0.00  0.00    +0.000 HD
BRANCH  20  22
ATOM     22  C   UNL     1      27.708  16.265  18.421  0.00  0.00    +0.000 C 
BRANCH  22  23
ATOM     23  C   UNL     1      28.435  16.813  17.253  0.00  0.00    +0.000 C 
BRANCH  23  24
ATOM     24  N   UNL     1      29.300  15.714  16.812  0.00  0.00    +0.000 N 
ATOM     25  C   UNL     1      30.708  15.634  17.230  0.00  0.00    +0.000 C 
ATOM     26  O   UNL     1      31.212  16.420  18.009  0.00  0.00    +0.000 OA
ATOM     27  H   UNL     1      28.918  14.991  16.203  0.00  0.00    +0.000 HD
BRANCH  25  28
ATOM     28  C   UNL     1      31.541  14.589  16.587  0.00  0.00    +0.000 C 
ATOM     29  C   UNL     1      33.043  14.716  16.731  0.00  0.00    +0.000 C 
BRANCH  28  30
ATOM     30  N   UNL     1      31.027  13.681  15.846  0.00  0.00    +0.000 N 
ATOM     31  O   UNL     1      29.850  13.710  15.538  0.00  0.00    +0.000 OA
ATOM     32  O   UNL     1      31.740  12.849  15.337  0.00  0.00    +0.000 OA
ENDBRANCH  28  30
ENDBRANCH  25  28
ENDBRANCH  23  24
ENDBRANCH  22  23
ENDBRANCH  20  22
ENDBRANCH  17  18
ENDBRANCH  16  17
ENDBRANCH  14  16
ENDBRANCH  11  12
BRANCH  11  33
ATOM     33  O   UNL     1      21.221  21.250  19.787  0.00  0.00    +0.000 OA
ATOM     34  H   UNL     1      21.050  21.154  18.847  0.00  0.00    +0.000 HD
ENDBRANCH  11  33
ENDBRANCH   8  11
ENDBRANCH   7   8
ENDBRANCH   6   7
ENDBRANCH   2   6
ENDBRANCH   1   2
BRANCH   1  35
ATOM     35  P   UNL     1      19.112  24.191  19.567  0.00  0.00    +0.000 P 
ATOM     36  O   UNL     1      18.232  25.308  19.048  0.00  0.00    +0.000 OA
BRANCH  35  37
ATOM     37  O   UNL     1      18.833  22.789  19.050  0.00  0.00    +0.000 OA
ATOM     38  H   UNL     1      19.452  22.173  19.449  0.00  0.00    +0.000 HD
ENDBRANCH  35  37
BRANCH  35  39
ATOM     39  O   UNL     1      20.517  24.818  19.157  0.00  0.00    +0.000 OA
BRANCH  39  40
ATOM     40  C   UNL     1      20.975  26.170  19.230  0.00  0.00    +0.000 C 
BRANCH  40  44
ATOM     41  C   UNL     1      22.925  24.863  16.836  0.00  0.00    +0.000 C 
ATOM     42  C   UNL     1      21.492  24.437  16.534  0.00  0.00    +0.000 C 
ATOM     43  C   UNL     1      20.836  25.790  16.755  0.00  0.00    +0.000 C 
ATOM     44  C   UNL     1      21.639  26.460  17.887  0.00  0.00    +0.000 C 
ATOM     45  O   UNL     1      22.997  25.920  17.863  0.00  0.00    +0.000 OA
BRANCH  41  54
ATOM     46  N   UNL     1      26.989  22.089  15.596  0.00  0.00    +0.000 NA
ATOM     47  C   UNL     1      26.452  23.191  14.969  0.00  0.00    +0.000 A 
ATOM     48  N   UNL     1      25.344  23.787  15.410  0.00  0.00    +0.000 NA
ATOM     49  C   UNL     1      24.785  23.314  16.550  0.00  0.00    +0.000 A 
ATOM     50  C   UNL     1      25.325  22.163  17.294  0.00  0.00    +0.000 A 
ATOM     51  C   UNL     1      26.501  21.569  16.742  0.00  0.00    +0.000 A 
ATOM     52  N   UNL     1      24.525  21.911  18.369  0.00  0.00    +0.000 NA
ATOM     53  C   UNL     1      23.562  22.852  18.347  0.00  0.00    +0.000 A 
ATOM     54  N   UNL     1      23.741  23.676  17.256  0.00  0.00    +0.000 N 
BRANCH  51  55
ATOM     55  N   UNL     1      27.056  20.544  17.397  0.00  0.00    +0.000 N 
ATOM     56  H   UNL     1      27.902  20.105  17.034  0.00  0.00    +0.000 HD
ATOM     57  H   UNL     1      26.633  20.201  18.260  0.00  0.00    +0.000 HD
ENDBRANCH  51  55
ENDBRANCH  41  54
BRANCH  42  58
ATOM     58  O   UNL     1      21.283  23.786  15.241  0.00  0.00    +0.000 OA
ATOM     59  H   UNL     1      20.356  23.557  15.145  0.00  0.00    +0.000 HD
ENDBRANCH  42  58
BRANCH  43  60
ATOM     60  O   UNL     1      20.916  26.522  15.539  0.00  0.00    +0.000 OA
BRANCH  60  62
ATOM     61  O   UNL     1      20.292  27.982  13.743  0.00  0.00    +0.000 OA
ATOM     62  P   UNL     1      19.704  27.523  15.058  0.00  0.00    +0.000 P 
BRANCH  62  63
ATOM     63  O   UNL     1      18.460  26.639  15.063  0.00  0.00    +0.000 OA
ATOM     64  H   UNL     1      18.216  26.437  15.969  0.00  0.00    +0.000 HD
ENDBRANCH  62  63
BRANCH  62  65
ATOM     65  O   UNL     1      19.722  28.658  16.077  0.00  0.00    +0.000 OA
ATOM     66  H   UNL     1      19.346  28.349  16.905  0.00  0.00    +0.000 HD
ENDBRANCH  62  65
ENDBRANCH  60  62
ENDBRANCH  43  60
ENDBRANCH  40  44
ENDBRANCH  39  40
ENDBRANCH  35  39
ENDBRANCH   1  35
TORSDOF 28
