REMARK  Name = 6n9l_ligand
REMARK  12 active torsions:
REMARK  status: ('A' for Active; 'I' for Inactive)
REMARK    1  A    between atoms: P_1  and  O_2
REMARK    2  A    between atoms: P_1  and  O_4
REMARK    3  A    between atoms: P_1  and  O_8
REMARK    4  A    between atoms: P_5  and  O_6
REMARK    5  A    between atoms: P_5  and  O_8
REMARK    6  A    between atoms: P_5  and  O_9
REMARK    7  A    between atoms: O_9  and  C_10
REMARK    8  A    between atoms: C_10  and  C_11
REMARK    9  A    between atoms: C_13  and  O_14
REMARK   10  A    between atoms: C_15  and  O_16
REMARK   11  A    between atoms: C_17  and  N_18
REMARK   12  A    between atoms: C_22  and  N_23
REMARK                            x       y       z     vdW  Elec       q    Type
REMARK                         _______ _______ _______ _____ _____    ______ ____
ROOT
ATOM      1  C   UNL     1      31.395   4.468  13.059  0.00  0.00    +0.000 C 
ATOM      2  O   UNL     1      32.173   3.329  13.456  0.00  0.00    +0.000 OA
ATOM      3  C   UNL     1      30.005   3.929  12.730  0.00  0.00    +0.000 C 
ATOM      4  C   UNL     1      29.924   2.591  13.451  0.00  0.00    +0.000 C 
ATOM      5  C   UNL     1      31.380   2.136  13.392  0.00  0.00    +0.000 C 
ENDROOT
BRANCH   5   6
ATOM      6  N   UNL     1      31.725   1.325  14.569  0.00  0.00    +0.000 N 
ATOM      7  C   UNL     1      31.440   1.635  15.858  0.00  0.00    +0.000 A 
ATOM      8  N   UNL     1      31.912   0.659  16.678  0.00  0.00    +0.000 NA
ATOM      9  C   UNL     1      32.515  -0.266  15.910  0.00  0.00    +0.000 A 
ATOM     10  C   UNL     1      33.216  -1.541  16.156  0.00  0.00    +0.000 A 
ATOM     11  N   UNL     1      33.688  -2.207  15.083  0.00  0.00    +0.000 NA
ATOM     12  C   UNL     1      33.539  -1.751  13.820  0.00  0.00    +0.000 A 
ATOM     13  N   UNL     1      32.910  -0.593  13.523  0.00  0.00    +0.000 NA
ATOM     14  C   UNL     1      32.387   0.169  14.517  0.00  0.00    +0.000 A 
BRANCH  10  15
ATOM     15  N   UNL     1      33.355  -1.991  17.428  0.00  0.00    +0.000 N 
ATOM     16  H   UNL     1      32.977  -1.449  18.205  0.00  0.00    +0.000 HD
ATOM     17  H   UNL     1      33.838  -2.871  17.608  0.00  0.00    +0.000 HD
ENDBRANCH  10  15
ENDBRANCH   5   6
BRANCH   3  18
ATOM     18  O   UNL     1      29.921   3.711  11.316  0.00  0.00    +0.000 OA
ATOM     19  H   UNL     1      29.050   3.372  11.097  0.00  0.00    +0.000 HD
ENDBRANCH   3  18
BRANCH   4  20
ATOM     20  O   UNL     1      29.040   1.674  12.812  0.00  0.00    +0.000 OA
ATOM     21  H   UNL     1      29.025   0.850  13.304  0.00  0.00    +0.000 HD
ENDBRANCH   4  20
BRANCH   1  22
ATOM     22  C   UNL     1      31.369   5.424  14.257  0.00  0.00    +0.000 C 
BRANCH  22  23
ATOM     23  O   UNL     1      30.695   4.753  15.345  0.00  0.00    +0.000 OA
BRANCH  23  24
ATOM     24  P   UNL     1      30.611   5.369  16.827  0.00  0.00    +0.000 P 
ATOM     25  O   UNL     1      30.008   4.367  17.765  0.00  0.00    +0.000 OA
BRANCH  24  26
ATOM     26  O   UNL     1      31.962   5.933  17.168  0.00  0.00    +0.000 OA
ATOM     27  H   UNL     1      32.228   6.557  16.489  0.00  0.00    +0.000 HD
ENDBRANCH  24  26
BRANCH  24  28
ATOM     28  O   UNL     1      29.533   6.528  16.601  0.00  0.00    +0.000 OA
BRANCH  28  29
ATOM     29  P   UNL     1      28.744   7.403  17.700  0.00  0.00    +0.000 P 
ATOM     30  O   UNL     1      29.431   7.218  19.015  0.00  0.00    +0.000 OA
BRANCH  29  31
ATOM     31  O   UNL     1      28.938   8.793  17.163  0.00  0.00    +0.000 OA
ATOM     32  H   UNL     1      28.485   8.876  16.321  0.00  0.00    +0.000 HD
ENDBRANCH  29  31
BRANCH  29  33
ATOM     33  O   UNL     1      27.291   6.934  17.612  0.00  0.00    +0.000 OA
ATOM     34  H   UNL     1      26.955   7.101  16.728  0.00  0.00    +0.000 HD
ENDBRANCH  29  33
ENDBRANCH  28  29
ENDBRANCH  24  28
ENDBRANCH  23  24
ENDBRANCH  22  23
ENDBRANCH   1  22
TORSDOF 12
