REMARK  Name = 5ze6_ligand
REMARK  18 active torsions:
REMARK  status: ('A' for Active; 'I' for Inactive)
REMARK    1  A    between atoms: C_1  and  C_8
REMARK    2  A    between atoms: O_3  and  C_22
REMARK    3  A    between atoms: O_4  and  C_23
REMARK    4  A    between atoms: C_8  and  C_9
REMARK    5  A    between atoms: C_9  and  C_10
REMARK    6  A    between atoms: C_10  and  C_11
REMARK    7  A    between atoms: C_11  and  C_12
REMARK    8  A    between atoms: C_12  and  C_13
REMARK    9  A    between atoms: C_13  and  C_14
REMARK   10  A    between atoms: C_14  and  C_15
REMARK   11  A    between atoms: C_15  and  C_16
REMARK   12  A    between atoms: C_16  and  C_17
REMARK   13  A    between atoms: C_17  and  C_18
REMARK   14  A    between atoms: C_18  and  C_19
REMARK   15  A    between atoms: C_19  and  C_20
REMARK   16  A    between atoms: C_20  and  O_21
REMARK   17  A    between atoms: O_21  and  C_24
REMARK   18  A    between atoms: C_22  and  C_25
REMARK                            x       y       z     vdW  Elec       q    Type
REMARK                         _______ _______ _______ _____ _____    ______ ____
ROOT
ATOM      1  C   UNL     1      12.756  15.596  41.351  0.00  0.00    +0.000 C 
ENDROOT
BRANCH   1   2
ATOM      2  O   UNL     1      12.117  16.798  40.975  0.00  0.00    +0.000 OA
BRANCH   2   7
ATOM      3  C   UNL     1       8.558  15.899  40.673  0.00  0.00    +0.000 A 
ATOM      4  C   UNL     1       7.938  17.091  41.001  0.00  0.00    +0.000 A 
ATOM      5  C   UNL     1       9.934  15.821  40.671  0.00  0.00    +0.000 A 
ATOM      6  C   UNL     1       8.698  18.199  41.343  0.00  0.00    +0.000 A 
ATOM      7  C   UNL     1      10.713  16.927  41.013  0.00  0.00    +0.000 A 
ATOM      8  C   UNL     1      10.098  18.155  41.347  0.00  0.00    +0.000 A 
BRANCH   8  10
ATOM      9  O   UNL     1      12.067  19.640  41.269  0.00  0.00    +0.000 OA
ATOM     10  C   UNL     1      10.903  19.439  41.702  0.00  0.00    +0.000 C 
BRANCH  10  11
ATOM     11  O   UNL     1      10.428  20.374  42.406  0.00  0.00    +0.000 OA
ATOM     12  H   UNL     1       9.543  20.139  42.693  0.00  0.00    +0.000 HD
ENDBRANCH  10  11
ENDBRANCH   8  10
BRANCH   6  13
ATOM     13  O   UNL     1       8.001  19.361  41.685  0.00  0.00    +0.000 OA
ATOM     14  H   UNL     1       8.627  20.056  41.901  0.00  0.00    +0.000 HD
ENDBRANCH   6  13
ENDBRANCH   2   7
ENDBRANCH   1   2
BRANCH   1  15
ATOM     15  C   UNL     1      12.712  15.436  42.876  0.00  0.00    +0.000 C 
BRANCH  15  16
ATOM     16  C   UNL     1      14.054  15.001  43.478  0.00  0.00    +0.000 C 
BRANCH  16  17
ATOM     17  C   UNL     1      14.042  13.838  44.481  0.00  0.00    +0.000 C 
BRANCH  17  18
ATOM     18  C   UNL     1      15.370  13.081  44.440  0.00  0.00    +0.000 C 
BRANCH  18  19
ATOM     19  C   UNL     1      15.319  11.689  45.044  0.00  0.00    +0.000 C 
BRANCH  19  20
ATOM     20  C   UNL     1      15.064  10.562  44.044  0.00  0.00    +0.000 C 
BRANCH  20  21
ATOM     21  C   UNL     1      13.745   9.832  44.300  0.00  0.00    +0.000 C 
BRANCH  21  22
ATOM     22  C   UNL     1      13.850   8.376  44.725  0.00  0.00    +0.000 C 
BRANCH  22  23
ATOM     23  C   UNL     1      13.848   8.202  46.237  0.00  0.00    +0.000 C 
BRANCH  23  24
ATOM     24  C   UNL     1      14.808   7.079  46.577  0.00  0.00    +0.000 C 
BRANCH  24  25
ATOM     25  C   UNL     1      14.433   6.290  47.818  0.00  0.00    +0.000 C 
BRANCH  25  27
ATOM     26  C   UNL     1      14.961   4.161  49.109  0.00  0.00    +0.000 C 
ATOM     27  C   UNL     1      15.153   4.939  47.804  0.00  0.00    +0.000 C 
ENDBRANCH  25  27
ENDBRANCH  24  25
ENDBRANCH  23  24
ENDBRANCH  22  23
ENDBRANCH  21  22
ENDBRANCH  20  21
ENDBRANCH  19  20
ENDBRANCH  18  19
ENDBRANCH  17  18
ENDBRANCH  16  17
ENDBRANCH  15  16
ENDBRANCH   1  15
TORSDOF 17
