REMARK  Name = 6cf7_ligand
REMARK  8 active torsions:
REMARK  status: ('A' for Active; 'I' for Inactive)
REMARK    1  A    between atoms: C_2  and  N_12
REMARK    2  A    between atoms: C_8  and  C_20
REMARK    3  A    between atoms: C_9  and  C_10
REMARK    4  A    between atoms: C_16  and  C_17
REMARK    5  A    between atoms: N_27  and  C_28
REMARK    6  A    between atoms: C_28  and  C_29
REMARK    7  A    between atoms: C_28  and  C_35
REMARK    8  A    between atoms: N_33  and  C_34
REMARK                            x       y       z     vdW  Elec       q    Type
REMARK                         _______ _______ _______ _____ _____    ______ ____
ROOT
ATOM      1  C   UNL     1      16.211  45.664  26.485  0.00  0.00    +0.000 C 
ATOM      2  O   UNL     1      15.454  44.980  27.169  0.00  0.00    +0.000 OA
ATOM      3  N   UNL     1      16.452  46.961  26.792  0.00  0.00    +0.000 N 
ATOM      4  C   UNL     1      15.756  47.594  27.932  0.00  0.00    +0.000 C 
ATOM      5  C   UNL     1      16.725  48.460  28.743  0.00  0.00    +0.000 C 
ATOM      6  C   UNL     1      17.364  47.828  26.007  0.00  0.00    +0.000 C 
ATOM      7  C   UNL     1      18.213  48.727  26.909  0.00  0.00    +0.000 C 
ATOM      8  N   UNL     1      17.421  49.459  27.912  0.00  0.00    +0.000 N 
ATOM      9  H   UNL     1      16.745  50.079  27.465  0.00  0.00    +0.000 HD
ENDROOT
BRANCH   1  12
ATOM     10  C   UNL     1      18.321  43.708  23.451  0.00  0.00    +0.000 A 
ATOM     11  C   UNL     1      16.217  44.382  24.402  0.00  0.00    +0.000 A 
ATOM     12  C   UNL     1      16.896  45.022  25.446  0.00  0.00    +0.000 A 
ATOM     13  C   UNL     1      16.934  43.730  23.399  0.00  0.00    +0.000 A 
ATOM     14  C   UNL     1      18.977  44.332  24.502  0.00  0.00    +0.000 A 
ATOM     15  N   UNL     1      18.238  44.971  25.495  0.00  0.00    +0.000 NA
BRANCH  13  24
ATOM     16  C   UNL     1      15.330  41.053  18.622  0.00  0.00    +0.000 A 
ATOM     17  C   UNL     1      14.049  41.132  19.140  0.00  0.00    +0.000 A 
ATOM     18  C   UNL     1      13.884  41.748  20.380  0.00  0.00    +0.000 A 
ATOM     19  C   UNL     1      14.940  42.233  21.038  0.00  0.00    +0.000 A 
ATOM     20  C   UNL     1      16.168  42.144  20.521  0.00  0.00    +0.000 A 
ATOM     21  C   UNL     1      16.387  41.574  19.345  0.00  0.00    +0.000 A 
ATOM     22  O   UNL     1      17.019  42.696  21.364  0.00  0.00    +0.000 OA
ATOM     23  N   UNL     1      15.060  42.854  22.213  0.00  0.00    +0.000 NA
ATOM     24  C   UNL     1      16.353  43.120  22.370  0.00  0.00    +0.000 A 
BRANCH  17  28
ATOM     25  C   UNL     1      10.918  39.769  17.742  0.00  0.00    +0.000 C 
ATOM     26  C   UNL     1      11.818  40.384  18.811  0.00  0.00    +0.000 C 
ATOM     27  O   UNL     1      11.371  40.622  19.932  0.00  0.00    +0.000 OA
ATOM     28  N   UNL     1      13.075  40.608  18.380  0.00  0.00    +0.000 N 
ATOM     29  H   UNL     1      13.300  40.364  17.416  0.00  0.00    +0.000 HD
ENDBRANCH  17  28
ENDBRANCH  13  24
ENDBRANCH   1  12
BRANCH   8  30
ATOM     30  C   UNL     1      18.329  50.279  28.750  0.00  0.00    +0.000 C 
BRANCH  30  31
ATOM     31  C   UNL     1      18.966  51.433  27.980  0.00  0.00    +0.000 A 
ATOM     32  N   UNL     1      18.497  52.023  26.906  0.00  0.00    +0.000 NA
ATOM     33  N   UNL     1      20.096  52.031  28.288  0.00  0.00    +0.000 NA
ATOM     34  N   UNL     1      20.236  52.815  27.514  0.00  0.00    +0.000 NA
ATOM     35  N   UNL     1      19.283  52.825  26.673  0.00  0.00    +0.000 N 
ATOM     36  C   UNL     1      19.246  53.773  25.555  0.00  0.00    +0.000 C 
ENDBRANCH  30  31
BRANCH  30  37
ATOM     37  C   UNL     1      17.703  50.800  29.881  0.00  0.00    +0.000 A 
ATOM     38  C   UNL     1      18.176  50.432  31.134  0.00  0.00    +0.000 A 
ATOM     39  C   UNL     1      17.569  50.933  32.276  0.00  0.00    +0.000 A 
ATOM     40  C   UNL     1      16.495  51.809  32.168  0.00  0.00    +0.000 A 
ATOM     41  C   UNL     1      16.023  52.187  30.916  0.00  0.00    +0.000 A 
ATOM     42  C   UNL     1      16.631  51.685  29.770  0.00  0.00    +0.000 A 
ENDBRANCH  30  37
ENDBRANCH   8  30
TORSDOF 6
