REMARK  Name = 6np4_ligand
REMARK  16 active torsions:
REMARK  status: ('A' for Active; 'I' for Inactive)
REMARK    1  A    between atoms: C_1  and  O_2
REMARK    2  A    between atoms: O_2  and  C_17
REMARK    3  A    between atoms: C_3  and  N_4
REMARK    4  A    between atoms: C_6  and  O_7
REMARK    5  A    between atoms: C_8  and  C_10
REMARK    6  A    between atoms: C_10  and  N_11
REMARK    7  A    between atoms: C_12  and  N_13
REMARK    8  A    between atoms: C_15  and  N_16
REMARK    9  A    between atoms: C_18  and  O_19
REMARK   10  A    between atoms: C_20  and  O_21
REMARK   11  A    between atoms: O_21  and  C_22
REMARK   12  A    between atoms: C_23  and  O_24
REMARK   13  A    between atoms: C_25  and  N_26
REMARK   14  A    between atoms: C_27  and  O_28
REMARK   15  A    between atoms: C_29  and  C_31
REMARK   16  A    between atoms: C_31  and  O_32
REMARK                            x       y       z     vdW  Elec       q    Type
REMARK                         _______ _______ _______ _____ _____    ______ ____
ROOT
ATOM      1  C   UNL     1     113.210 -15.416  -5.627  0.00  0.00    +0.000 C 
ATOM      2  C   UNL     1     113.409 -16.888  -5.247  0.00  0.00    +0.000 C 
ATOM      3  C   UNL     1     112.070 -17.643  -5.358  0.00  0.00    +0.000 C 
ATOM      4  C   UNL     1     111.389 -17.546  -6.741  0.00  0.00    +0.000 C 
ATOM      5  C   UNL     1     111.320 -16.082  -7.192  0.00  0.00    +0.000 C 
ATOM      6  C   UNL     1     112.665 -15.346  -7.053  0.00  0.00    +0.000 C 
ENDROOT
BRANCH   1   7
ATOM      7  N   UNL     1     114.478 -14.697  -5.502  0.00  0.00    +0.000 N 
ATOM      8  H   UNL     1     114.339 -13.719  -5.756  0.00  0.00    +0.000 HD
ATOM      9  H   UNL     1     114.807 -14.756  -4.538  0.00  0.00    +0.000 HD
ATOM     10  H   UNL     1     115.168 -15.117  -6.125  0.00  0.00    +0.000 HD
ENDBRANCH   1   7
BRANCH   3  11
ATOM     11  N   UNL     1     112.272 -19.056  -5.070  0.00  0.00    +0.000 N 
ATOM     12  H   UNL     1     111.382 -19.548  -5.146  0.00  0.00    +0.000 HD
ATOM     13  H   UNL     1     112.936 -19.447  -5.739  0.00  0.00    +0.000 HD
ATOM     14  H   UNL     1     112.640 -19.160  -4.124  0.00  0.00    +0.000 HD
ENDBRANCH   3  11
BRANCH   5  15
ATOM     15  O   UNL     1     110.937 -16.017  -8.543  0.00  0.00    +0.000 OA
ATOM     16  H   UNL     1     110.896 -15.098  -8.819  0.00  0.00    +0.000 HD
ENDBRANCH   5  15
BRANCH   6  17
ATOM     17  O   UNL     1     112.475 -13.993  -7.391  0.00  0.00    +0.000 OA
BRANCH  17  18
ATOM     18  C   UNL     1     113.346 -13.435  -8.309  0.00  0.00    +0.000 C 
ATOM     19  C   UNL     1     113.456 -11.958  -7.967  0.00  0.00    +0.000 C 
ATOM     20  C   UNL     1     112.147 -11.258  -8.124  0.00  0.00    +0.000 C 
ATOM     21  C   UNL     1     111.595 -11.456  -9.511  0.00  0.00    +0.000 C 
ATOM     22  C   UNL     1     111.522 -12.954  -9.834  0.00  0.00    +0.000 C 
ATOM     23  O   UNL     1     112.855 -13.528  -9.682  0.00  0.00    +0.000 OA
BRANCH  20  24
ATOM     24  N   UNL     1     112.314  -9.792  -7.768  0.00  0.00    +0.000 N 
ATOM     25  H   UNL     1     111.420  -9.313  -7.875  0.00  0.00    +0.000 HD
ATOM     26  H   UNL     1     112.630  -9.712  -6.802  0.00  0.00    +0.000 HD
ATOM     27  H   UNL     1     113.004  -9.369  -8.389  0.00  0.00    +0.000 HD
ENDBRANCH  20  24
BRANCH  21  28
ATOM     28  O   UNL     1     110.295 -10.880  -9.614  0.00  0.00    +0.000 OA
ATOM     29  H   UNL     1     109.956 -11.014 -10.502  0.00  0.00    +0.000 HD
ENDBRANCH  21  28
BRANCH  19  30
ATOM     30  O   UNL     1     113.910 -11.874  -6.626  0.00  0.00    +0.000 OA
ATOM     31  H   UNL     1     113.992 -10.951  -6.374  0.00  0.00    +0.000 HD
ENDBRANCH  19  30
BRANCH  22  32
ATOM     32  C   UNL     1     110.987 -13.242 -11.207  0.00  0.00    +0.000 C 
BRANCH  32  33
ATOM     33  O   UNL     1     111.713 -12.551 -12.181  0.00  0.00    +0.000 OA
ATOM     34  H   UNL     1     111.353 -12.751 -13.048  0.00  0.00    +0.000 HD
ENDBRANCH  32  33
ENDBRANCH  22  32
ENDBRANCH  17  18
ENDBRANCH   6  17
BRANCH   4  35
ATOM     35  O   UNL     1     110.127 -18.192  -6.568  0.00  0.00    +0.000 OA
BRANCH  35  36
ATOM     36  C   UNL     1     109.193 -18.227  -7.601  0.00  0.00    +0.000 C 
ATOM     37  C   UNL     1     107.895 -18.855  -7.047  0.00  0.00    +0.000 C 
ATOM     38  C   UNL     1     108.072 -20.263  -6.680  0.00  0.00    +0.000 C 
ATOM     39  C   UNL     1     108.618 -21.046  -7.807  0.00  0.00    +0.000 C 
ATOM     40  C   UNL     1     109.867 -20.408  -8.402  0.00  0.00    +0.000 C 
ATOM     41  O   UNL     1     109.635 -19.003  -8.753  0.00  0.00    +0.000 OA
BRANCH  37  42
ATOM     42  N   UNL     1     107.467 -18.079  -5.847  0.00  0.00    +0.000 N 
ATOM     43  H   UNL     1     107.344 -17.099  -6.103  0.00  0.00    +0.000 HD
ATOM     44  H   UNL     1     106.585 -18.454  -5.498  0.00  0.00    +0.000 HD
ATOM     45  H   UNL     1     108.180 -18.155  -5.122  0.00  0.00    +0.000 HD
ENDBRANCH  37  42
BRANCH  39  46
ATOM     46  O   UNL     1     109.024 -22.346  -7.356  0.00  0.00    +0.000 OA
ATOM     47  H   UNL     1     108.271 -22.799  -6.968  0.00  0.00    +0.000 HD
ENDBRANCH  39  46
BRANCH  40  48
ATOM     48  C   UNL     1     110.262 -21.143  -9.645  0.00  0.00    +0.000 C 
BRANCH  48  49
ATOM     49  N   UNL     1     111.505 -20.606 -10.173  0.00  0.00    +0.000 N 
ATOM     50  H   UNL     1     111.762 -21.115 -11.019  0.00  0.00    +0.000 HD
ATOM     51  H   UNL     1     111.380 -19.618 -10.394  0.00  0.00    +0.000 HD
ATOM     52  H   UNL     1     112.242 -20.709  -9.475  0.00  0.00    +0.000 HD
ENDBRANCH  48  49
ENDBRANCH  40  48
ENDBRANCH  35  36
ENDBRANCH   4  35
TORSDOF 16
