REMARK  Name = 6hv2_ligand
REMARK  27 active torsions:
REMARK  status: ('A' for Active; 'I' for Inactive)
REMARK    1  A    between atoms: N_1  and  CA_2
REMARK    2  A    between atoms: CA_2  and  C_3
REMARK    3  A    between atoms: CA_2  and  CB_5
REMARK    4  A    between atoms: CB_5  and  CG1_6
REMARK    5  A    between atoms: CB_5  and  CG2_7
REMARK    6  A    between atoms: CG1_6  and  CD1_8
REMARK    7  A    between atoms: N_9  and  CA_10
REMARK    8  A    between atoms: CA_10  and  C_11
REMARK    9  A    between atoms: CA_10  and  CB_13
REMARK   10  A    between atoms: CB_13  and  CG_14
REMARK   11  A    between atoms: CG_14  and  SD_15
REMARK   12  A    between atoms: SD_15  and  CE_16
REMARK   13  A    between atoms: N_17  and  CA_18
REMARK   14  A    between atoms: CA_18  and  C_19
REMARK   15  A    between atoms: CA_18  and  CB_21
REMARK   16  A    between atoms: CB_21  and  CG1_22
REMARK   17  A    between atoms: CB_21  and  CG2_23
REMARK   18  A    between atoms: CG1_22  and  CD1_24
REMARK   19  A    between atoms: N_25  and  CA_26
REMARK   20  A    between atoms: CA_26  and  C_27
REMARK   21  A    between atoms: CA_26  and  CB_29
REMARK   22  A    between atoms: CB_29  and  OG_30
REMARK   23  A    between atoms: N_31  and  CA_32
REMARK   24  A    between atoms: CA_32  and  C_33
REMARK   25  A    between atoms: CA_32  and  CB_35
REMARK   26  A    between atoms: C_33  and  OXT_42
REMARK   27  A    between atoms: CB_35  and  CG_36
REMARK                            x       y       z     vdW  Elec       q    Type
REMARK                         _______ _______ _______ _____ _____    ______ ____
ROOT
ATOM      1  CA  ILE A   3      27.583 -17.565  11.372  0.00  0.00    +0.000 C 
ENDROOT
BRANCH   1   4
ATOM      2  C   MET A   2      28.763 -15.454  11.871  0.00  0.00    +0.000 C 
ATOM      3  O   MET A   2      28.289 -14.846  10.904  0.00  0.00    +0.000 OA
ATOM      4  N   ILE A   3      28.451 -16.713  12.176  0.00  0.00    +0.000 N 
ATOM      5  H   ILE A   3      28.846 -17.107  13.030  0.00  0.00    +0.000 HD
BRANCH   2   6
ATOM      6  CA  MET A   2      29.788 -14.784  12.776  0.00  0.00    +0.000 C 
BRANCH   6   9
ATOM      7  C   ILE A   1      32.065 -14.271  11.997  0.00  0.00    +0.000 C 
ATOM      8  O   ILE A   1      32.612 -15.009  12.818  0.00  0.00    +0.000 OA
ATOM      9  N   MET A   2      30.747 -14.071  11.939  0.00  0.00    +0.000 N 
ATOM     10  H   MET A   2      30.391 -13.384  11.275  0.00  0.00    +0.000 HD
BRANCH   7  11
ATOM     11  CA  ILE A   1      32.899 -13.510  10.992  0.00  0.00    +0.000 C 
BRANCH  11  12
ATOM     12  N   ILE A   1      33.909 -12.719  11.701  0.00  0.00    +0.000 N 
ATOM     13  H1  ILE A   1      33.447 -12.094  12.362  0.00  0.00    +0.000 HD
ATOM     14  H2  ILE A   1      34.537 -13.345  12.205  0.00  0.00    +0.000 HD
ATOM     15  H3  ILE A   1      34.443 -12.169  11.028  0.00  0.00    +0.000 HD
ENDBRANCH  11  12
BRANCH  11  16
ATOM     16  CB  ILE A   1      33.537 -14.476   9.976  0.00  0.00    +0.000 C 
ATOM     17  CG2 ILE A   1      32.486 -15.440   9.435  0.00  0.00    +0.000 C 
BRANCH  16  18
ATOM     18  CG1 ILE A   1      34.227 -13.683   8.873  0.00  0.00    +0.000 C 
ATOM     19  CD1 ILE A   1      34.794 -14.536   7.730  0.00  0.00    +0.000 C 
ENDBRANCH  16  18
ENDBRANCH  11  16
ENDBRANCH   7  11
ENDBRANCH   6   9
BRANCH   6  20
ATOM     20  CB  MET A   2      29.108 -13.839  13.778  0.00  0.00    +0.000 C 
BRANCH  20  21
ATOM     21  CG  MET A   2      30.034 -13.348  14.881  0.00  0.00    +0.000 C 
BRANCH  21  22
ATOM     22  SD  MET A   2      29.562 -13.980  16.522  0.00  0.00    +0.000 S 
ATOM     23  CE  MET A   2      29.924 -15.722  16.324  0.00  0.00    +0.000 C 
ENDBRANCH  21  22
ENDBRANCH  20  21
ENDBRANCH   6  20
ENDBRANCH   2   6
ENDBRANCH   1   4
BRANCH   1  24
ATOM     24  C   ILE A   3      26.597 -18.256  12.307  0.00  0.00    +0.000 C 
ATOM     25  O   ILE A   3      26.971 -18.677  13.407  0.00  0.00    +0.000 OA
ATOM     26  N   SER A   4      25.346 -18.389  11.867  0.00  0.00    +0.000 N 
ATOM     27  H   SER A   4      25.108 -17.986  10.960  0.00  0.00    +0.000 HD
BRANCH  26  28
ATOM     28  CA  SER A   4      24.298 -19.079  12.611  0.00  0.00    +0.000 C 
BRANCH  28  29
ATOM     29  C   SER A   4      23.786 -20.279  11.820  0.00  0.00    +0.000 C 
ATOM     30  O   SER A   4      24.044 -20.419  10.623  0.00  0.00    +0.000 OA
ATOM     31  N   PHE A   5      23.033 -21.136  12.508  0.00  0.00    +0.000 N 
ATOM     32  H   PHE A   5      22.814 -20.916  13.480  0.00  0.00    +0.000 HD
BRANCH  31  33
ATOM     33  CA  PHE A   5      22.502 -22.380  11.939  0.00  0.00    +0.000 C 
BRANCH  33  34
ATOM     34  C   PHE A   5      23.622 -23.283  11.430  0.00  0.00    +0.000 C 
ATOM     35  O   PHE A   5      24.468 -23.735  12.202  0.00  0.00    +0.000 OA
BRANCH  34  36
ATOM     36  OXT PHE A   5      23.702 -23.578  10.237  0.00  0.00    +0.000 OA
ATOM     37  HXT PHE A   5      22.984 -23.160   9.756  0.00  0.00    +0.000 HD
ENDBRANCH  34  36
ENDBRANCH  33  34
BRANCH  33  38
ATOM     38  CB  PHE A   5      21.510 -22.094  10.808  0.00  0.00    +0.000 C 
BRANCH  38  39
ATOM     39  CG  PHE A   5      20.135 -21.722  11.282  0.00  0.00    +0.000 A 
ATOM     40  CD1 PHE A   5      19.650 -22.194  12.493  0.00  0.00    +0.000 A 
ATOM     41  CD2 PHE A   5      19.319 -20.911  10.509  0.00  0.00    +0.000 A 
ATOM     42  CE1 PHE A   5      18.375 -21.855  12.927  0.00  0.00    +0.000 A 
ATOM     43  CE2 PHE A   5      18.048 -20.563  10.936  0.00  0.00    +0.000 A 
ATOM     44  CZ  PHE A   5      17.574 -21.037  12.147  0.00  0.00    +0.000 A 
ENDBRANCH  38  39
ENDBRANCH  33  38
ENDBRANCH  31  33
ENDBRANCH  28  29
BRANCH  28  45
ATOM     45  CB  SER A   4      23.141 -18.127  12.936  0.00  0.00    +0.000 C 
BRANCH  45  46
ATOM     46  OG  SER A   4      22.137 -18.769  13.704  0.00  0.00    +0.000 OA
ATOM     47  H   SER A   4      21.430 -18.146  13.889  0.00  0.00    +0.000 HD
ENDBRANCH  45  46
ENDBRANCH  28  45
ENDBRANCH  26  28
ENDBRANCH   1  24
BRANCH   1  48
ATOM     48  CB  ILE A   3      28.403 -18.612  10.583  0.00  0.00    +0.000 C 
ATOM     49  CG2 ILE A   3      27.497 -19.523   9.776  0.00  0.00    +0.000 C 
BRANCH  48  50
ATOM     50  CG1 ILE A   3      29.432 -17.937   9.671  0.00  0.00    +0.000 C 
ATOM     51  CD1 ILE A   3      30.437 -18.907   9.089  0.00  0.00    +0.000 C 
ENDBRANCH  48  50
ENDBRANCH   1  48
TORSDOF 22
