REMARK  Name = 6jmf_ligand
REMARK  7 active torsions:
REMARK  status: ('A' for Active; 'I' for Inactive)
REMARK    1  A    between atoms: C_1  and  C_7
REMARK    2  A    between atoms: C_2  and  N_11
REMARK    3  A    between atoms: C_3  and  C_6
REMARK    4  A    between atoms: C_5  and  C_14
REMARK    5  A    between atoms: N_10  and  C_12
REMARK    6  A    between atoms: N_11  and  C_18
REMARK    7  A    between atoms: C_23  and  N_24
REMARK                            x       y       z     vdW  Elec       q    Type
REMARK                         _______ _______ _______ _____ _____    ______ ____
ROOT
ATOM      1  C   UNL     1     -12.120  29.339   9.994  0.00  0.00    +0.000 A 
ATOM      2  C   UNL     1     -14.810  29.207   9.605  0.00  0.00    +0.000 A 
ATOM      3  C   UNL     1     -14.252  28.714  10.767  0.00  0.00    +0.000 A 
ATOM      4  C   UNL     1     -12.890  28.770  10.974  0.00  0.00    +0.000 A 
ATOM      5  C   UNL     1     -12.722  29.820   8.853  0.00  0.00    +0.000 A 
ATOM      6  N   UNL     1     -14.048  29.763   8.643  0.00  0.00    +0.000 NA
ATOM      7  N   UNL     1     -11.838  30.358   7.935  0.00  0.00    +0.000 N 
ATOM      8  H   UNL     1     -10.848  30.287   8.171  0.00  0.00    +0.000 HD
ENDROOT
BRANCH   7  10
ATOM      9  C   UNL     1     -10.181  32.937   4.230  0.00  0.00    +0.000 C 
ATOM     10  C   UNL     1     -12.134  30.979   6.739  0.00  0.00    +0.000 A 
ATOM     11  C   UNL     1     -11.086  31.607   6.104  0.00  0.00    +0.000 A 
ATOM     12  C   UNL     1     -11.304  32.255   4.916  0.00  0.00    +0.000 A 
ATOM     13  C   UNL     1     -12.565  32.274   4.368  0.00  0.00    +0.000 A 
ATOM     14  C   UNL     1     -13.608  31.639   5.005  0.00  0.00    +0.000 A 
ATOM     15  C   UNL     1     -13.397  30.987   6.198  0.00  0.00    +0.000 A 
ENDBRANCH   7  10
BRANCH   1  16
ATOM     16  C   UNL     1     -10.664  29.394  10.207  0.00  0.00    +0.000 C 
ATOM     17  O   UNL     1      -9.889  29.891   9.394  0.00  0.00    +0.000 OA
ATOM     18  N   UNL     1     -10.333  28.829  11.399  0.00  0.00    +0.000 N 
ATOM     19  H   UNL     1      -9.357  28.790  11.691  0.00  0.00    +0.000 HD
ATOM     20  H   UNL     1     -11.061  28.444  12.001  0.00  0.00    +0.000 HD
ENDBRANCH   1  16
BRANCH   3  21
ATOM     21  C   UNL     1     -15.001  28.096  11.814  0.00  0.00    +0.000 C 
ATOM     22  N   UNL     1     -15.585  27.487  12.623  0.00  0.00    +0.000 NA
ENDBRANCH   3  21
BRANCH   2  23
ATOM     23  N   UNL     1     -16.220  29.091   9.488  0.00  0.00    +0.000 N 
ATOM     24  H   UNL     1     -16.814  28.793  10.261  0.00  0.00    +0.000 HD
BRANCH  23  25
ATOM     25  C   UNL     1     -16.752  29.433   8.169  0.00  0.00    +0.000 C 
ATOM     26  C   UNL     1     -18.248  29.683   8.251  0.00  0.00    +0.000 C 
ATOM     27  C   UNL     1     -18.785  30.107   6.891  0.00  0.00    +0.000 C 
ATOM     28  C   UNL     1     -18.430  29.131   5.782  0.00  0.00    +0.000 C 
ATOM     29  C   UNL     1     -16.942  28.873   5.749  0.00  0.00    +0.000 C 
ATOM     30  C   UNL     1     -16.455  28.389   7.099  0.00  0.00    +0.000 C 
BRANCH  30  31
ATOM     31  N   UNL     1     -17.058  27.098   7.385  0.00  0.00    +0.000 N 
ATOM     32  H   UNL     1     -16.826  26.443   6.638  0.00  0.00    +0.000 HD
ATOM     33  H   UNL     1     -16.699  26.745   8.272  0.00  0.00    +0.000 HD
ATOM     34  H   UNL     1     -18.071  27.203   7.445  0.00  0.00    +0.000 HD
ENDBRANCH  30  31
ENDBRANCH  23  25
ENDBRANCH   2  23
TORSDOF 6
