REMARK  Name = 6n53_ligand
REMARK  8 active torsions:
REMARK  status: ('A' for Active; 'I' for Inactive)
REMARK    1  A    between atoms: P_1  and  O_20
REMARK    2  A    between atoms: P_1  and  O_22
REMARK    3  A    between atoms: P_1  and  O_23
REMARK    4  A    between atoms: N_2  and  C_10
REMARK    5  A    between atoms: C_11  and  N_13
REMARK    6  A    between atoms: C_12  and  O_14
REMARK    7  A    between atoms: C_15  and  C_18
REMARK    8  A    between atoms: C_18  and  O_20
REMARK                            x       y       z     vdW  Elec       q    Type
REMARK                         _______ _______ _______ _____ _____    ______ ____
ROOT
ATOM      1  C   UNL     1      12.001 -23.110 -26.046  0.00  0.00    +0.000 C 
ATOM      2  C   UNL     1      11.300 -22.915 -27.423  0.00  0.00    +0.000 C 
ATOM      3  C   UNL     1       9.987 -22.171 -27.071  0.00  0.00    +0.000 C 
ATOM      4  C   UNL     1      10.069 -22.275 -25.529  0.00  0.00    +0.000 C 
ATOM      5  O   UNL     1      10.842 -23.468 -25.253  0.00  0.00    +0.000 OA
ENDROOT
BRANCH   1   6
ATOM      6  N   UNL     1      13.227 -23.923 -25.966  0.00  0.00    +0.000 N 
ATOM      7  C   UNL     1      13.279 -25.261 -25.793  0.00  0.00    +0.000 A 
ATOM      8  O   UNL     1      12.256 -25.915 -25.714  0.00  0.00    +0.000 OA
ATOM      9  N   UNL     1      14.476 -25.885 -25.719  0.00  0.00    +0.000 N 
ATOM     10  C   UNL     1      15.630 -25.186 -25.805  0.00  0.00    +0.000 A 
ATOM     11  O   UNL     1      16.713 -25.741 -25.738  0.00  0.00    +0.000 OA
ATOM     12  C   UNL     1      15.581 -23.785 -25.975  0.00  0.00    +0.000 A 
ATOM     13  C   UNL     1      14.378 -23.191 -26.046  0.00  0.00    +0.000 A 
ATOM     14  H   UNL     1      14.509 -26.897 -25.597  0.00  0.00    +0.000 HD
ENDBRANCH   1   6
BRANCH   2  15
ATOM     15  N   UNL     1      11.923 -22.892 -28.762  0.00  0.00    +0.000 NA
ATOM     16  N   UNL     1      12.917 -23.360 -29.002  0.00  0.00    +0.000 NA
ATOM     17  N   UNL     1      13.920 -23.793 -29.267  0.00  0.00    +0.000 NA
ENDBRANCH   2  15
BRANCH   3  18
ATOM     18  O   UNL     1      10.068 -20.807 -27.481  0.00  0.00    +0.000 OA
ATOM     19  H   UNL     1       9.250 -20.358 -27.258  0.00  0.00    +0.000 HD
ENDBRANCH   3  18
BRANCH   4  20
ATOM     20  C   UNL     1       8.695 -22.211 -24.851  0.00  0.00    +0.000 C 
BRANCH  20  21
ATOM     21  O   UNL     1       8.408 -20.825 -24.622  0.00  0.00    +0.000 OA
BRANCH  21  22
ATOM     22  P   UNL     1       8.403 -20.126 -23.168  0.00  0.00    +0.000 P 
ATOM     23  O   UNL     1       9.294 -20.870 -22.251  0.00  0.00    +0.000 OA
BRANCH  22  24
ATOM     24  O   UNL     1       8.932 -18.610 -23.295  0.00  0.00    +0.000 OA
ATOM     25  H   UNL     1       8.358 -18.121 -23.889  0.00  0.00    +0.000 HD
ENDBRANCH  22  24
BRANCH  22  26
ATOM     26  O   UNL     1       6.906 -20.108 -22.579  0.00  0.00    +0.000 OA
ATOM     27  H   UNL     1       6.333 -19.624 -23.178  0.00  0.00    +0.000 HD
ENDBRANCH  22  26
ENDBRANCH  21  22
ENDBRANCH  20  21
ENDBRANCH   4  20
TORSDOF 8
