REMARK  Name = 6qre_ligand
REMARK  6 active torsions:
REMARK  status: ('A' for Active; 'I' for Inactive)
REMARK    1  A    between atoms: C_6  and  O_7
REMARK    2  A    between atoms: O_7  and  C_8
REMARK    3  A    between atoms: C_10  and  C_11
REMARK    4  A    between atoms: C_11  and  O_12
REMARK    5  A    between atoms: O_12  and  C_13
REMARK    6  A    between atoms: C_13  and  C_14
REMARK                            x       y       z     vdW  Elec       q    Type
REMARK                         _______ _______ _______ _____ _____    ______ ____
ROOT
ATOM      1  C   UNL     1     -22.766  20.106 -12.694  0.00  0.00    +0.000 C 
ENDROOT
BRANCH   1   6
ATOM      2  C   UNL     1     -22.154  21.557 -10.758  0.00  0.00    +0.000 A 
ATOM      3  C   UNL     1     -23.194  21.259  -8.583  0.00  0.00    +0.000 A 
ATOM      4  C   UNL     1     -23.954  20.247  -9.087  0.00  0.00    +0.000 A 
ATOM      5  C   UNL     1     -23.822  19.863 -10.438  0.00  0.00    +0.000 A 
ATOM      6  C   UNL     1     -22.917  20.525 -11.266  0.00  0.00    +0.000 A 
ATOM      7  C   UNL     1     -22.284  21.937  -9.420  0.00  0.00    +0.000 A 
BRANCH   4   9
ATOM      8  C   UNL     1     -25.732  18.689  -8.899  0.00  0.00    +0.000 C 
ATOM      9  O   UNL     1     -24.877  19.563  -8.241  0.00  0.00    +0.000 OA
ENDBRANCH   4   9
ENDBRANCH   1   6
BRANCH   1  10
ATOM     10  O   UNL     1     -21.956  18.900 -12.760  0.00  0.00    +0.000 OA
BRANCH  10  11
ATOM     11  C   UNL     1     -20.571  19.138 -12.926  0.00  0.00    +0.000 C 
ATOM     12  O   UNL     1     -20.150  20.292 -13.054  0.00  0.00    +0.000 OA
BRANCH  11  16
ATOM     13  C   UNL     1     -19.933  16.617 -12.923  0.00  0.00    +0.000 A 
ATOM     14  N   UNL     1     -17.734  16.754 -12.875  0.00  0.00    +0.000 NA
ATOM     15  C   UNL     1     -18.210  18.031 -12.900  0.00  0.00    +0.000 A 
ATOM     16  C   UNL     1     -19.592  17.955 -12.918  0.00  0.00    +0.000 A 
ATOM     17  N   UNL     1     -18.808  15.916 -12.902  0.00  0.00    +0.000 NA
ENDBRANCH  11  16
ENDBRANCH  10  11
ENDBRANCH   1  10
TORSDOF 5
