REMARK  Name = 6uhv_ligand
REMARK  11 active torsions:
REMARK  status: ('A' for Active; 'I' for Inactive)
REMARK    1  A    between atoms: C_1  and  C_2
REMARK    2  A    between atoms: C_1  and  N_10
REMARK    3  A    between atoms: C_2  and  C_3
REMARK    4  A    between atoms: C_3  and  N_11
REMARK    5  A    between atoms: C_4  and  C_5
REMARK    6  A    between atoms: C_4  and  N_11
REMARK    7  A    between atoms: C_5  and  C_6
REMARK    8  A    between atoms: C_6  and  C_7
REMARK    9  A    between atoms: C_7  and  C_8
REMARK   10  A    between atoms: C_8  and  C_9
REMARK   11  A    between atoms: N_12  and  O_14
REMARK                            x       y       z     vdW  Elec       q    Type
REMARK                         _______ _______ _______ _____ _____    ______ ____
ROOT
ATOM      1  C   UNL     1      26.995  39.868  34.585  0.00  0.00    +0.000 C 
ENDROOT
BRANCH   1   2
ATOM      2  N   UNL     1      27.409  38.636  33.829  0.00  0.00    +0.000 N 
ATOM      3  H   UNL     1      27.307  37.833  34.449  0.00  0.00    +0.000 HD
ATOM      4  H   UNL     1      26.819  38.558  33.000  0.00  0.00    +0.000 HD
BRANCH   2   5
ATOM      5  C   UNL     1      28.842  38.703  33.380  0.00  0.00    +0.000 C 
BRANCH   5   6
ATOM      6  C   UNL     1      29.185  37.537  32.399  0.00  0.00    +0.000 C 
BRANCH   6   7
ATOM      7  C   UNL     1      30.241  37.923  31.319  0.00  0.00    +0.000 C 
BRANCH   7   8
ATOM      8  N   UNL     1      29.627  38.126  29.982  0.00  0.00    +0.000 N 
ATOM      9  H   UNL     1      30.353  38.376  29.310  0.00  0.00    +0.000 HD
ATOM     10  H   UNL     1      29.169  37.264  29.685  0.00  0.00    +0.000 HD
ATOM     11  H   UNL     1      28.939  38.877  30.036  0.00  0.00    +0.000 HD
ENDBRANCH   7   8
ENDBRANCH   6   7
ENDBRANCH   5   6
ENDBRANCH   2   5
ENDBRANCH   1   2
BRANCH   1  12
ATOM     12  C   UNL     1      25.710  39.613  35.449  0.00  0.00    +0.000 C 
BRANCH  12  13
ATOM     13  C   UNL     1      24.539  40.602  35.154  0.00  0.00    +0.000 C 
BRANCH  13  14
ATOM     14  C   UNL     1      23.130  39.929  35.013  0.00  0.00    +0.000 C 
BRANCH  14  15
ATOM     15  C   UNL     1      22.051  40.798  34.277  0.00  0.00    +0.000 C 
BRANCH  15  16
ATOM     16  C   UNL     1      20.814  40.071  33.727  0.00  0.00    +0.000 C 
ATOM     17  N   UNL     1      19.958  39.299  34.535  0.00  0.00    +0.000 N 
ATOM     18  O   UNL     1      20.584  40.184  32.482  0.00  0.00    +0.000 OA
ATOM     19  H   UNL     1      20.123  39.190  35.536  0.00  0.00    +0.000 HD
BRANCH  17  20
ATOM     20  O   UNL     1      18.847  38.675  33.889  0.00  0.00    +0.000 OA
ATOM     21  H   UNL     1      18.339  38.180  34.536  0.00  0.00    +0.000 HD
ENDBRANCH  17  20
ENDBRANCH  15  16
ENDBRANCH  14  15
ENDBRANCH  13  14
ENDBRANCH  12  13
ENDBRANCH   1  12
TORSDOF 11
