REMARK  Name = 6oxx_ligand
REMARK  19 active torsions:
REMARK  status: ('A' for Active; 'I' for Inactive)
REMARK    1  A    between atoms: C_1  and  C_2
REMARK    2  A    between atoms: C_1  and  C_16
REMARK    3  A    between atoms: C_1  and  O_34
REMARK    4  A    between atoms: C_2  and  C_8
REMARK    5  A    between atoms: C_2  and  N_31
REMARK    6  A    between atoms: C_3  and  O_36
REMARK    7  A    between atoms: C_4  and  O_36
REMARK    8  A    between atoms: C_8  and  C_19
REMARK    9  A    between atoms: C_9  and  C_28
REMARK   10  A    between atoms: C_12  and  S_41
REMARK   11  A    between atoms: C_15  and  C_26
REMARK   12  A    between atoms: C_15  and  N_30
REMARK   13  A    between atoms: C_16  and  N_30
REMARK   14  A    between atoms: C_25  and  C_28
REMARK   15  A    between atoms: C_25  and  O_40
REMARK   16  A    between atoms: C_26  and  C_27
REMARK   17  A    between atoms: C_26  and  C_29
REMARK   18  A    between atoms: C_28  and  O_39
REMARK   19  A    between atoms: N_30  and  S_41
REMARK                            x       y       z     vdW  Elec       q    Type
REMARK                         _______ _______ _______ _____ _____    ______ ____
ROOT
ATOM      1  C   UNL     1      71.047  57.633  15.158  0.00  0.00    +0.000 C 
ENDROOT
BRANCH   1   2
ATOM      2  O   UNL     1      70.843  58.745  14.360  0.00  0.00    +0.000 OA
ATOM      3  H   UNL     1      71.390  59.468  14.675  0.00  0.00    +0.000 HD
ENDBRANCH   1   2
BRANCH   1   4
ATOM      4  C   UNL     1      70.179  56.482  14.661  0.00  0.00    +0.000 C 
BRANCH   4   5
ATOM      5  N   UNL     1      70.572  55.249  15.415  0.00  0.00    +0.000 NA
BRANCH   5   8
ATOM      6  O   UNL     1      68.401  55.596  16.937  0.00  0.00    +0.000 OA
ATOM      7  O   UNL     1      69.916  53.909  17.609  0.00  0.00    +0.000 OA
ATOM      8  S   UNL     1      69.345  54.590  16.443  0.00  0.00    +0.000 S 
BRANCH   8  12
ATOM      9  C   UNL     1      67.312  51.345  13.579  0.00  0.00    +0.000 A 
ATOM     10  C   UNL     1      66.870  52.796  13.437  0.00  0.00    +0.000 A 
ATOM     11  C   UNL     1      67.507  53.839  14.360  0.00  0.00    +0.000 A 
ATOM     12  C   UNL     1      68.532  53.371  15.349  0.00  0.00    +0.000 A 
ATOM     13  C   UNL     1      68.989  51.919  15.480  0.00  0.00    +0.000 A 
ATOM     14  C   UNL     1      68.369  50.888  14.563  0.00  0.00    +0.000 A 
BRANCH   9  15
ATOM     15  C   UNL     1      66.708  50.306  12.634  0.00  0.00    +0.000 C 
BRANCH  15  16
ATOM     16  O   UNL     1      65.828  50.974  11.800  0.00  0.00    +0.000 OA
ATOM     17  H   UNL     1      65.429  50.349  11.191  0.00  0.00    +0.000 HD
ENDBRANCH  15  16
BRANCH  15  18
ATOM     18  C   UNL     1      67.892  49.820  11.833  0.00  0.00    +0.000 C 
BRANCH  18  19
ATOM     19  O   UNL     1      68.665  50.924  11.449  0.00  0.00    +0.000 OA
ATOM     20  H   UNL     1      69.420  50.623  10.939  0.00  0.00    +0.000 HD
ENDBRANCH  18  19
ENDBRANCH  15  18
ENDBRANCH   9  15
ENDBRANCH   8  12
ENDBRANCH   5   8
BRANCH   5  21
ATOM     21  C   UNL     1      71.419  54.238  14.710  0.00  0.00    +0.000 C 
BRANCH  21  22
ATOM     22  C   UNL     1      72.956  54.636  14.753  0.00  0.00    +0.000 C 
ATOM     23  C   UNL     1      73.467  54.619  16.190  0.00  0.00    +0.000 C 
ATOM     24  C   UNL     1      73.757  53.591  13.923  0.00  0.00    +0.000 C 
ENDBRANCH  21  22
ENDBRANCH   5  21
ENDBRANCH   4   5
ENDBRANCH   1   4
BRANCH   1  25
ATOM     25  C   UNL     1      70.683  57.983  16.624  0.00  0.00    +0.000 C 
BRANCH  25  27
ATOM     26  C   UNL     1      72.645  58.606  18.168  0.00  0.00    +0.000 C 
ATOM     27  N   UNL     1      71.668  58.920  17.070  0.00  0.00    +0.000 N 
ATOM     28  O   UNL     1      72.673  57.551  18.747  0.00  0.00    +0.000 OA
ATOM     29  H   UNL     1      71.709  59.837  16.625  0.00  0.00    +0.000 HD
BRANCH  26  30
ATOM     30  O   UNL     1      73.511  59.681  18.445  0.00  0.00    +0.000 OA
BRANCH  30  31
ATOM     31  C   UNL     1      74.291  59.669  19.653  0.00  0.00    +0.000 C 
ATOM     32  C   UNL     1      75.743  60.282  19.208  0.00  0.00    +0.000 C 
ATOM     33  C   UNL     1      74.459  61.926  20.160  0.00  0.00    +0.000 C 
ATOM     34  C   UNL     1      72.128  61.804  19.846  0.00  0.00    +0.000 C 
ATOM     35  C   UNL     1      73.850  60.523  20.572  0.00  0.00    +0.000 C 
ATOM     36  C   UNL     1      72.360  60.749  20.588  0.00  0.00    +0.000 C 
ATOM     37  O   UNL     1      75.504  61.589  19.065  0.00  0.00    +0.000 OA
ATOM     38  O   UNL     1      73.532  62.626  19.682  0.00  0.00    +0.000 OA
ENDBRANCH  30  31
ENDBRANCH  26  30
ENDBRANCH  25  27
BRANCH  25  39
ATOM     39  C   UNL     1      69.313  58.662  16.713  0.00  0.00    +0.000 C 
BRANCH  39  40
ATOM     40  C   UNL     1      69.051  59.085  18.180  0.00  0.00    +0.000 C 
ATOM     41  C   UNL     1      69.193  60.551  18.589  0.00  0.00    +0.000 C 
ATOM     42  C   UNL     1      68.937  60.968  20.026  0.00  0.00    +0.000 C 
ATOM     43  C   UNL     1      68.531  59.916  21.079  0.00  0.00    +0.000 C 
ATOM     44  C   UNL     1      68.389  58.438  20.670  0.00  0.00    +0.000 C 
ATOM     45  C   UNL     1      68.635  58.021  19.241  0.00  0.00    +0.000 C 
ENDBRANCH  39  40
ENDBRANCH  25  39
ENDBRANCH   1  25
TORSDOF 17
