REMARK  Name = 6os6_ligand
REMARK  5 active torsions:
REMARK  status: ('A' for Active; 'I' for Inactive)
REMARK    1  A    between atoms: N_1  and  CA_2
REMARK    2  A    between atoms: CA_2  and  C_3
REMARK    3  A    between atoms: CA_2  and  CB_5
REMARK    4  A    between atoms: C_3  and  O_4
REMARK    5  A    between atoms: CB_5  and  CG_6
REMARK                            x       y       z     vdW  Elec       q    Type
REMARK                         _______ _______ _______ _____ _____    ______ ____
ROOT
ATOM      1  CB  TRP A   1      43.017  12.127  19.516  0.00  0.00    +0.000 C 
ENDROOT
BRANCH   1   2
ATOM      2  CG  TRP A   1      42.572  12.566  20.865  0.00  0.00    +0.000 C 
ATOM      3  CD1 TRP A   1      42.121  11.769  21.881  0.00  0.00    +0.000 C 
ATOM      4  CD2 TRP A   1      42.568  13.904  21.377  0.00  0.00    +0.000 C 
ATOM      5  NE1 TRP A   1      41.832  12.525  22.984  0.00  0.00    +0.000 NA
ATOM      6  CE2 TRP A   1      42.103  13.838  22.704  0.00  0.00    +0.000 C 
ATOM      7  CE3 TRP A   1      42.903  15.151  20.842  0.00  0.00    +0.000 C 
ATOM      8  CZ2 TRP A   1      41.946  14.976  23.499  0.00  0.00    +0.000 C 
ATOM      9  CZ3 TRP A   1      42.757  16.273  21.639  0.00  0.00    +0.000 C 
ATOM     10  CH2 TRP A   1      42.282  16.176  22.949  0.00  0.00    +0.000 C 
ENDBRANCH   1   2
BRANCH   1  11
ATOM     11  CA  TRP A   1      44.533  11.946  19.383  0.00  0.00    +0.000 C 
BRANCH  11  12
ATOM     12  N   TRP A   1      45.068  11.176  20.508  0.00  0.00    +0.000 N 
ATOM     13  H1  TRP A   1      46.076  11.069  20.397  0.00  0.00    +0.000 HD
ATOM     14  H2  TRP A   1      44.871  11.668  21.380  0.00  0.00    +0.000 HD
ATOM     15  H3  TRP A   1      44.628  10.256  20.529  0.00  0.00    +0.000 HD
ENDBRANCH  11  12
BRANCH  11  16
ATOM     16  C   TRP A   1      45.246  13.280  19.276  0.00  0.00    +0.000 C 
ATOM     17  OXT TRP A   1      46.101  13.556  20.120  0.00  0.00    +0.000 OA
BRANCH  16  18
ATOM     18  O   TRP A   1      44.986  14.037  18.329  0.00  0.00    +0.000 OA
ATOM     19  H   TRP A   1      44.297  13.645  17.788  0.00  0.00    +0.000 HD
ENDBRANCH  16  18
ENDBRANCH  11  16
ENDBRANCH   1  11
TORSDOF 5
