REMARK  Name = 6n96_ligand
REMARK  15 active torsions:
REMARK  status: ('A' for Active; 'I' for Inactive)
REMARK    1  A    between atoms: C_4  and  N_30
REMARK    2  A    between atoms: O_6  and  P_8
REMARK    3  A    between atoms: O_6  and  P_11
REMARK    4  A    between atoms: O_7  and  P_8
REMARK    5  A    between atoms: P_8  and  O_10
REMARK    6  A    between atoms: P_11  and  O_13
REMARK    7  A    between atoms: P_11  and  O_14
REMARK    8  A    between atoms: O_14  and  C_15
REMARK    9  A    between atoms: C_15  and  C_16
REMARK   10  A    between atoms: C_18  and  N_27
REMARK   11  A    between atoms: C_19  and  O_20
REMARK   12  A    between atoms: C_21  and  O_22
REMARK   13  A    between atoms: O_22  and  P_23
REMARK   14  A    between atoms: P_23  and  O_25
REMARK   15  A    between atoms: P_23  and  O_26
REMARK                            x       y       z     vdW  Elec       q    Type
REMARK                         _______ _______ _______ _____ _____    ______ ____
ROOT
ATOM      1  C   UNL     1      33.468 -23.644  42.942  0.00  0.00    +0.000 C 
ATOM      2  O   UNL     1      32.858 -22.928  41.857  0.00  0.00    +0.000 OA
ATOM      3  C   UNL     1      33.247 -23.553  40.639  0.00  0.00    +0.000 C 
ATOM      4  C   UNL     1      34.518 -24.310  40.865  0.00  0.00    +0.000 C 
ATOM      5  C   UNL     1      34.392 -24.690  42.320  0.00  0.00    +0.000 C 
ENDROOT
BRANCH   3  11
ATOM      6  C   UNL     1      30.156 -21.103  38.856  0.00  0.00    +0.000 A 
ATOM      7  C   UNL     1      32.318 -21.940  39.096  0.00  0.00    +0.000 A 
ATOM      8  C   UNL     1      32.780 -21.114  37.954  0.00  0.00    +0.000 A 
ATOM      9  C   UNL     1      31.761 -20.261  37.316  0.00  0.00    +0.000 A 
ATOM     10  N   UNL     1      30.513 -20.316  37.804  0.00  0.00    +0.000 NA
ATOM     11  N   UNL     1      33.371 -22.607  39.513  0.00  0.00    +0.000 N 
ATOM     12  C   UNL     1      34.452 -22.276  38.748  0.00  0.00    +0.000 A 
ATOM     13  N   UNL     1      34.092 -21.373  37.781  0.00  0.00    +0.000 NA
ATOM     14  N   UNL     1      31.032 -21.931  39.496  0.00  0.00    +0.000 NA
BRANCH   9  15
ATOM     15  N   UNL     1      32.053 -19.466  36.274  0.00  0.00    +0.000 N 
ATOM     16  H   UNL     1      33.002 -19.441  35.902  0.00  0.00    +0.000 HD
ATOM     17  H   UNL     1      31.325 -18.887  35.854  0.00  0.00    +0.000 HD
ENDBRANCH   9  15
ENDBRANCH   3  11
BRANCH   4  18
ATOM     18  O   UNL     1      34.426 -25.481  40.050  0.00  0.00    +0.000 OA
ATOM     19  H   UNL     1      35.222 -26.007  40.157  0.00  0.00    +0.000 HD
ENDBRANCH   4  18
BRANCH   1  20
ATOM     20  C   UNL     1      34.209 -22.626  43.760  0.00  0.00    +0.000 C 
BRANCH  20  21
ATOM     21  O   UNL     1      35.496 -22.518  43.153  0.00  0.00    +0.000 OA
BRANCH  21  22
ATOM     22  P   UNL     1      36.737 -22.165  44.123  0.00  0.00    +0.000 P 
ATOM     23  O   UNL     1      37.636 -21.170  43.490  0.00  0.00    +0.000 OA
BRANCH  22  24
ATOM     24  O   UNL     1      37.348 -23.516  44.508  0.00  0.00    +0.000 OA
ATOM     25  H   UNL     1      36.672 -24.070  44.906  0.00  0.00    +0.000 HD
ENDBRANCH  22  24
BRANCH  22  26
ATOM     26  O   UNL     1      36.113 -21.481  45.443  0.00  0.00    +0.000 OA
BRANCH  26  27
ATOM     27  P   UNL     1      35.895 -19.916  45.792  0.00  0.00    +0.000 P 
ATOM     28  O   UNL     1      34.792 -19.316  44.991  0.00  0.00    +0.000 OA
BRANCH  27  29
ATOM     29  O   UNL     1      35.437 -19.875  47.337  0.00  0.00    +0.000 OA
ATOM     30  H   UNL     1      36.128 -20.256  47.885  0.00  0.00    +0.000 HD
ENDBRANCH  27  29
BRANCH  27  31
ATOM     31  O   UNL     1      37.191 -19.102  45.831  0.00  0.00    +0.000 OA
ATOM     32  H   UNL     1      37.841 -19.563  46.367  0.00  0.00    +0.000 HD
ENDBRANCH  27  31
ENDBRANCH  26  27
ENDBRANCH  22  26
ENDBRANCH  21  22
ENDBRANCH  20  21
ENDBRANCH   1  20
BRANCH   5  33
ATOM     33  O   UNL     1      33.761 -25.942  42.173  0.00  0.00    +0.000 OA
BRANCH  33  34
ATOM     34  P   UNL     1      33.866 -27.189  43.183  0.00  0.00    +0.000 P 
ATOM     35  O   UNL     1      32.835 -26.822  44.217  0.00  0.00    +0.000 OA
BRANCH  34  36
ATOM     36  O   UNL     1      33.483 -28.456  42.440  0.00  0.00    +0.000 OA
ATOM     37  H   UNL     1      34.159 -28.661  41.790  0.00  0.00    +0.000 HD
ENDBRANCH  34  36
BRANCH  34  38
ATOM     38  O   UNL     1      35.255 -27.399  43.776  0.00  0.00    +0.000 OA
ATOM     39  H   UNL     1      35.869 -27.630  43.075  0.00  0.00    +0.000 HD
ENDBRANCH  34  38
ENDBRANCH  33  34
ENDBRANCH   5  33
TORSDOF 15
