REMARK  Name = 6hzd_ligand
REMARK  22 active torsions:
REMARK  status: ('A' for Active; 'I' for Inactive)
REMARK    1  A    between atoms: C_2  and  C_5
REMARK    2  A    between atoms: C_5  and  C_6
REMARK    3  A    between atoms: C_6  and  C_7
REMARK    4  A    between atoms: C_7  and  N_8
REMARK    5  A    between atoms: C_13  and  C_16
REMARK    6  A    between atoms: C_16  and  C_17
REMARK    7  A    between atoms: C_17  and  C_18
REMARK    8  A    between atoms: C_18  and  N_19
REMARK    9  A    between atoms: C_24  and  C_27
REMARK   10  A    between atoms: C_27  and  C_28
REMARK   11  A    between atoms: C_28  and  C_29
REMARK   12  A    between atoms: C_29  and  N_30
REMARK   13  A    between atoms: C_35  and  C_36
REMARK   14  A    between atoms: N_43  and  C_44
REMARK   15  A    between atoms: C_44  and  C_45
REMARK   16  A    between atoms: C_44  and  C_47
REMARK   17  A    between atoms: C_47  and  C_48
REMARK   18  A    between atoms: C_48  and  C_49
REMARK   19  A    between atoms: C_49  and  N_50
REMARK   20  A    between atoms: N_54  and  C_55
REMARK   21  A    between atoms: C_55  and  C_56
REMARK   22  A    between atoms: C_59  and  C_60
REMARK                            x       y       z     vdW  Elec       q    Type
REMARK                         _______ _______ _______ _____ _____    ______ ____
ROOT
ATOM      1  N   UNL     1      55.390 -35.579  -8.413  0.00  0.00    +0.000 N 
ATOM      2  C   UNL     1      54.849 -34.358  -7.781  0.00  0.00    +0.000 C 
ATOM      3  C   UNL     1      54.376 -34.677  -6.489  0.00  0.00    +0.000 C 
ATOM      4  O   UNL     1      54.034 -35.827  -6.182  0.00  0.00    +0.000 OA
ATOM      5  N   UNL     1      54.288 -33.652  -5.546  0.00  0.00    +0.000 N 
ATOM      6  C   UNL     1      53.807 -33.856  -4.152  0.00  0.00    +0.000 C 
ATOM      7  C   UNL     1      52.459 -34.272  -4.148  0.00  0.00    +0.000 C 
ATOM      8  O   UNL     1      52.031 -35.036  -3.275  0.00  0.00    +0.000 OA
ATOM      9  N   UNL     1      51.592 -33.840  -5.172  0.00  0.00    +0.000 N 
ATOM     10  C   UNL     1      50.163 -34.261  -5.250  0.00  0.00    +0.000 C 
ATOM     11  C   UNL     1      49.892 -34.715  -6.556  0.00  0.00    +0.000 C 
ATOM     12  O   UNL     1      50.395 -34.157  -7.531  0.00  0.00    +0.000 OA
ATOM     13  N   UNL     1      49.072 -35.837  -6.768  0.00  0.00    +0.000 N 
ATOM     14  C   UNL     1      48.793 -36.379  -8.130  0.00  0.00    +0.000 C 
ATOM     15  C   UNL     1      49.086 -37.878  -8.092  0.00  0.00    +0.000 C 
ATOM     16  C   UNL     1      50.503 -38.186  -7.606  0.00  0.00    +0.000 C 
ATOM     17  C   UNL     1      51.487 -38.172  -8.748  0.00  0.00    +0.000 C 
ATOM     18  C   UNL     1      52.648 -39.120  -8.413  0.00  0.00    +0.000 C 
ATOM     19  N   UNL     1      53.666 -38.523  -7.515  0.00  0.00    +0.000 N 
ATOM     20  C   UNL     1      56.552 -36.190  -7.921  0.00  0.00    +0.000 C 
ATOM     21  C   UNL     1      56.986 -37.373  -8.511  0.00  0.00    +0.000 C 
ATOM     22  C   UNL     1      57.218 -38.430  -7.425  0.00  0.00    +0.000 C 
ATOM     23  C   UNL     1      55.933 -38.670  -6.609  0.00  0.00    +0.000 C 
ATOM     24  C   UNL     1      54.913 -39.174  -7.432  0.00  0.00    +0.000 C 
ATOM     25  O   UNL     1      57.150 -35.698  -6.961  0.00  0.00    +0.000 OA
ATOM     26  O   UNL     1      55.077 -40.204  -8.087  0.00  0.00    +0.000 OA
ATOM     27  H   UNL     1      54.912 -35.983  -9.218  0.00  0.00    +0.000 HD
ATOM     28  H   UNL     1      54.568 -32.712  -5.827  0.00  0.00    +0.000 HD
ATOM     29  H   UNL     1      51.957 -33.214  -5.889  0.00  0.00    +0.000 HD
ATOM     30  H   UNL     1      48.652 -36.298  -5.961  0.00  0.00    +0.000 HD
ATOM     31  H   UNL     1      53.472 -37.677  -6.980  0.00  0.00    +0.000 HD
ENDROOT
BRANCH  14  32
ATOM     32  C   UNL     1      47.436 -36.275  -8.486  0.00  0.00    +0.000 C 
ATOM     33  O   UNL     1      46.567 -36.316  -7.619  0.00  0.00    +0.000 OA
ATOM     34  N   UNL     1      47.154 -36.197  -9.802  0.00  0.00    +0.000 N 
ATOM     35  H   UNL     1      47.922 -36.124 -10.469  0.00  0.00    +0.000 HD
BRANCH  34  36
ATOM     36  C   UNL     1      45.767 -36.214 -10.306  0.00  0.00    +0.000 C 
BRANCH  36  37
ATOM     37  C   UNL     1      45.187 -37.578  -9.907  0.00  0.00    +0.000 C 
ATOM     38  O   UNL     1      45.869 -38.581 -10.080  0.00  0.00    +0.000 OA
ATOM     39  N   UNL     1      43.961 -37.611  -9.355  0.00  0.00    +0.000 N 
ATOM     40  H   UNL     1      43.430 -36.745  -9.260  0.00  0.00    +0.000 HD
BRANCH  39  41
ATOM     41  C   UNL     1      43.368 -38.885  -8.882  0.00  0.00    +0.000 C 
BRANCH  41  42
ATOM     42  C   UNL     1      43.489 -38.951  -7.459  0.00  0.00    +0.000 A 
ATOM     43  C   UNL     1      42.408 -38.686  -6.621  0.00  0.00    +0.000 A 
ATOM     44  C   UNL     1      42.540 -38.740  -5.227  0.00  0.00    +0.000 A 
ATOM     45  C   UNL     1      43.754 -39.066  -4.616  0.00  0.00    +0.000 A 
ATOM     46  C   UNL     1      44.831 -39.327  -5.455  0.00  0.00    +0.000 A 
ATOM     47  C   UNL     1      44.702 -39.269  -6.851  0.00  0.00    +0.000 A 
BRANCH  45  48
ATOM     48  C   UNL     1      43.888 -39.119  -3.206  0.00  0.00    +0.000 C 
ATOM     49  N   UNL     1      45.071 -39.414  -2.667  0.00  0.00    +0.000 N 
ATOM     50  N   UNL     1      42.839 -38.820  -2.443  0.00  0.00    +0.000 NA
ATOM     51  H   UNL     1      45.184 -39.413  -1.653  0.00  0.00    +0.000 HD
ATOM     52  H   UNL     1      45.863 -39.641  -3.268  0.00  0.00    +0.000 HD
ATOM     53  H   UNL     1      41.953 -38.557  -2.874  0.00  0.00    +0.000 HD
ENDBRANCH  45  48
ENDBRANCH  41  42
ENDBRANCH  39  41
ENDBRANCH  36  37
BRANCH  36  54
ATOM     54  C   UNL     1      45.696 -36.046 -11.829  0.00  0.00    +0.000 C 
BRANCH  54  55
ATOM     55  C   UNL     1      46.239 -34.691 -12.303  0.00  0.00    +0.000 C 
BRANCH  55  56
ATOM     56  C   UNL     1      46.510 -34.807 -13.812  0.00  0.00    +0.000 C 
BRANCH  56  57
ATOM     57  N   UNL     1      46.942 -33.519 -14.382  0.00  0.00    +0.000 N 
ATOM     58  C   UNL     1      48.205 -33.074 -14.297  0.00  0.00    +0.000 C 
ATOM     59  N   UNL     1      48.548 -31.895 -14.840  0.00  0.00    +0.000 N 
ATOM     60  N   UNL     1      49.122 -33.802 -13.645  0.00  0.00    +0.000 NA
ATOM     61  H   UNL     1      46.252 -32.941 -14.862  0.00  0.00    +0.000 HD
ATOM     62  H   UNL     1      49.506 -31.554 -14.756  0.00  0.00    +0.000 HD
ATOM     63  H   UNL     1      47.851 -31.340 -15.336  0.00  0.00    +0.000 HD
ATOM     64  H   UNL     1      48.858 -34.689 -13.217  0.00  0.00    +0.000 HD
ENDBRANCH  56  57
ENDBRANCH  55  56
ENDBRANCH  54  55
ENDBRANCH  36  54
ENDBRANCH  34  36
ENDBRANCH  14  32
BRANCH  10  65
ATOM     65  C   UNL     1      49.214 -33.112  -4.870  0.00  0.00    +0.000 C 
BRANCH  65  66
ATOM     66  C   UNL     1      49.529 -32.603  -3.447  0.00  0.00    +0.000 C 
BRANCH  66  67
ATOM     67  C   UNL     1      49.022 -33.607  -2.389  0.00  0.00    +0.000 C 
BRANCH  67  68
ATOM     68  N   UNL     1      49.295 -33.152  -1.009  0.00  0.00    +0.000 N 
ATOM     69  C   UNL     1      50.173 -33.737  -0.160  0.00  0.00    +0.000 C 
ATOM     70  N   UNL     1      50.308 -33.287   1.107  0.00  0.00    +0.000 N 
ATOM     71  N   UNL     1      50.904 -34.790  -0.555  0.00  0.00    +0.000 NA
ATOM     72  H   UNL     1      48.784 -32.337  -0.671  0.00  0.00    +0.000 HD
ATOM     73  H   UNL     1      50.958 -33.747   1.745  0.00  0.00    +0.000 HD
ATOM     74  H   UNL     1      49.760 -32.487   1.425  0.00  0.00    +0.000 HD
ATOM     75  H   UNL     1      50.801 -35.156  -1.501  0.00  0.00    +0.000 HD
ENDBRANCH  67  68
ENDBRANCH  66  67
ENDBRANCH  65  66
ENDBRANCH  10  65
BRANCH   6  76
ATOM     76  C   UNL     1      54.000 -32.538  -3.393  0.00  0.00    +0.000 C 
BRANCH  76  77
ATOM     77  C   UNL     1      53.466 -32.603  -1.935  0.00  0.00    +0.000 C 
BRANCH  77  78
ATOM     78  C   UNL     1      54.100 -31.446  -1.155  0.00  0.00    +0.000 C 
BRANCH  78  79
ATOM     79  N   UNL     1      53.474 -31.187   0.158  0.00  0.00    +0.000 N 
ATOM     80  C   UNL     1      52.288 -30.571   0.361  0.00  0.00    +0.000 C 
ATOM     81  N   UNL     1      51.850 -30.340   1.624  0.00  0.00    +0.000 N 
ATOM     82  N   UNL     1      51.549 -30.179  -0.688  0.00  0.00    +0.000 NA
ATOM     83  H   UNL     1      53.982 -31.501   0.985  0.00  0.00    +0.000 HD
ATOM     84  H   UNL     1      50.959 -29.868   1.776  0.00  0.00    +0.000 HD
ATOM     85  H   UNL     1      52.412 -30.638   2.421  0.00  0.00    +0.000 HD
ATOM     86  H   UNL     1      51.882 -30.346  -1.637  0.00  0.00    +0.000 HD
ENDBRANCH  78  79
ENDBRANCH  77  78
ENDBRANCH  76  77
ENDBRANCH   6  76
BRANCH   2  87
ATOM     87  C   UNL     1      53.691 -33.797  -8.611  0.00  0.00    +0.000 C 
BRANCH  87  88
ATOM     88  C   UNL     1      54.203 -33.228  -9.941  0.00  0.00    +0.000 C 
BRANCH  88  89
ATOM     89  C   UNL     1      54.458 -31.729  -9.761  0.00  0.00    +0.000 C 
BRANCH  89  90
ATOM     90  N   UNL     1      54.452 -31.029 -11.059  0.00  0.00    +0.000 N 
ATOM     91  C   UNL     1      55.401 -30.149 -11.424  0.00  0.00    +0.000 C 
ATOM     92  N   UNL     1      55.324 -29.529 -12.606  0.00  0.00    +0.000 NA
ATOM     93  N   UNL     1      56.422 -29.876 -10.594  0.00  0.00    +0.000 N 
ATOM     94  H   UNL     1      53.692 -31.222 -11.711  0.00  0.00    +0.000 HD
ATOM     95  H   UNL     1      54.544 -29.723 -13.234  0.00  0.00    +0.000 HD
ATOM     96  H   UNL     1      57.134 -29.198 -10.867  0.00  0.00    +0.000 HD
ATOM     97  H   UNL     1      56.485 -30.346  -9.691  0.00  0.00    +0.000 HD
ENDBRANCH  89  90
ENDBRANCH  88  89
ENDBRANCH  87  88
ENDBRANCH   2  87
TORSDOF 22
