REMARK  Name = 6oy0_ligand
REMARK  20 active torsions:
REMARK  status: ('A' for Active; 'I' for Inactive)
REMARK    1  A    between atoms: C_1  and  C_2
REMARK    2  A    between atoms: C_1  and  C_16
REMARK    3  A    between atoms: C_1  and  O_35
REMARK    4  A    between atoms: C_2  and  C_8
REMARK    5  A    between atoms: C_2  and  N_32
REMARK    6  A    between atoms: C_3  and  O_37
REMARK    7  A    between atoms: C_4  and  O_37
REMARK    8  A    between atoms: C_8  and  C_19
REMARK    9  A    between atoms: C_9  and  C_30
REMARK   10  A    between atoms: C_12  and  S_42
REMARK   11  A    between atoms: C_15  and  C_27
REMARK   12  A    between atoms: C_15  and  N_31
REMARK   13  A    between atoms: C_16  and  N_31
REMARK   14  A    between atoms: C_25  and  C_30
REMARK   15  A    between atoms: C_25  and  O_41
REMARK   16  A    between atoms: C_26  and  C_28
REMARK   17  A    between atoms: C_27  and  C_28
REMARK   18  A    between atoms: C_27  and  C_29
REMARK   19  A    between atoms: C_30  and  O_40
REMARK   20  A    between atoms: N_31  and  S_42
REMARK                            x       y       z     vdW  Elec       q    Type
REMARK                         _______ _______ _______ _____ _____    ______ ____
ROOT
ATOM      1  C   UNL     1      71.231  57.690  14.960  0.00  0.00    +0.000 C 
ENDROOT
BRANCH   1   2
ATOM      2  O   UNL     1      71.095  58.824  14.153  0.00  0.00    +0.000 OA
ATOM      3  H   UNL     1      71.659  59.524  14.489  0.00  0.00    +0.000 HD
ENDBRANCH   1   2
BRANCH   1   4
ATOM      4  C   UNL     1      70.337  56.558  14.441  0.00  0.00    +0.000 C 
BRANCH   4   5
ATOM      5  N   UNL     1      70.694  55.318  15.185  0.00  0.00    +0.000 NA
BRANCH   5   8
ATOM      6  O   UNL     1      68.542  55.679  16.714  0.00  0.00    +0.000 OA
ATOM      7  O   UNL     1      70.025  54.013  17.417  0.00  0.00    +0.000 OA
ATOM      8  S   UNL     1      69.455  54.649  16.211  0.00  0.00    +0.000 S 
BRANCH   8  12
ATOM      9  C   UNL     1      67.306  51.397  13.316  0.00  0.00    +0.000 C 
ATOM     10  C   UNL     1      68.397  50.934  14.315  0.00  0.00    +0.000 C 
ATOM     11  C   UNL     1      69.060  51.976  15.230  0.00  0.00    +0.000 C 
ATOM     12  C   UNL     1      68.627  53.428  15.135  0.00  0.00    +0.000 C 
ATOM     13  C   UNL     1      67.552  53.900  14.126  0.00  0.00    +0.000 C 
ATOM     14  C   UNL     1      66.882  52.851  13.212  0.00  0.00    +0.000 C 
BRANCH   9  15
ATOM     15  C   UNL     1      66.666  50.351  12.407  0.00  0.00    +0.000 C 
BRANCH  15  16
ATOM     16  O   UNL     1      66.499  50.929  11.140  0.00  0.00    +0.000 OA
ATOM     17  H   UNL     1      66.097  50.289  10.548  0.00  0.00    +0.000 HD
ENDBRANCH  15  16
BRANCH  15  18
ATOM     18  C   UNL     1      65.348  49.919  12.973  0.00  0.00    +0.000 C 
BRANCH  18  19
ATOM     19  O   UNL     1      64.762  49.005  12.096  0.00  0.00    +0.000 OA
ATOM     20  H   UNL     1      63.916  48.721  12.450  0.00  0.00    +0.000 HD
ENDBRANCH  18  19
ENDBRANCH  15  18
ENDBRANCH   9  15
ENDBRANCH   8  12
ENDBRANCH   5   8
BRANCH   5  21
ATOM     21  C   UNL     1      71.566  54.302  14.493  0.00  0.00    +0.000 C 
BRANCH  21  22
ATOM     22  C   UNL     1      73.043  54.688  14.594  0.00  0.00    +0.000 C 
ATOM     23  C   UNL     1      73.487  54.764  16.065  0.00  0.00    +0.000 C 
BRANCH  22  25
ATOM     24  C   UNL     1      73.765  52.285  14.403  0.00  0.00    +0.000 C 
ATOM     25  C   UNL     1      73.888  53.676  13.824  0.00  0.00    +0.000 C 
ENDBRANCH  22  25
ENDBRANCH  21  22
ENDBRANCH   5  21
ENDBRANCH   4   5
ENDBRANCH   1   4
BRANCH   1  26
ATOM     26  C   UNL     1      70.849  58.046  16.415  0.00  0.00    +0.000 C 
BRANCH  26  28
ATOM     27  C   UNL     1      72.768  58.693  17.953  0.00  0.00    +0.000 C 
ATOM     28  N   UNL     1      71.783  59.009  16.892  0.00  0.00    +0.000 N 
ATOM     29  O   UNL     1      72.794  57.646  18.517  0.00  0.00    +0.000 OA
ATOM     30  H   UNL     1      71.774  59.947  16.491  0.00  0.00    +0.000 HD
BRANCH  27  31
ATOM     31  O   UNL     1      73.705  59.782  18.253  0.00  0.00    +0.000 OA
BRANCH  31  32
ATOM     32  C   UNL     1      74.484  59.691  19.457  0.00  0.00    +0.000 C 
ATOM     33  C   UNL     1      75.949  60.319  19.067  0.00  0.00    +0.000 C 
ATOM     34  C   UNL     1      74.646  61.909  20.014  0.00  0.00    +0.000 C 
ATOM     35  C   UNL     1      72.303  61.761  19.714  0.00  0.00    +0.000 C 
ATOM     36  C   UNL     1      74.050  60.489  20.401  0.00  0.00    +0.000 C 
ATOM     37  C   UNL     1      72.553  60.698  20.438  0.00  0.00    +0.000 C 
ATOM     38  O   UNL     1      75.683  61.613  18.912  0.00  0.00    +0.000 OA
ATOM     39  O   UNL     1      73.701  62.611  19.573  0.00  0.00    +0.000 OA
ENDBRANCH  31  32
ENDBRANCH  27  31
ENDBRANCH  26  28
BRANCH  26  40
ATOM     40  C   UNL     1      69.457  58.683  16.472  0.00  0.00    +0.000 C 
BRANCH  40  41
ATOM     41  C   UNL     1      69.226  59.146  17.922  0.00  0.00    +0.000 C 
ATOM     42  C   UNL     1      68.879  58.091  19.033  0.00  0.00    +0.000 C 
ATOM     43  C   UNL     1      68.661  58.548  20.472  0.00  0.00    +0.000 C 
ATOM     44  C   UNL     1      68.780  60.050  20.832  0.00  0.00    +0.000 C 
ATOM     45  C   UNL     1      69.126  61.096  19.723  0.00  0.00    +0.000 C 
ATOM     46  C   UNL     1      69.353  60.636  18.276  0.00  0.00    +0.000 C 
ENDBRANCH  40  41
ENDBRANCH  26  40
ENDBRANCH   1  26
TORSDOF 18
