REMARK  Name = 6i78_ligand
REMARK  11 active torsions:
REMARK  status: ('A' for Active; 'I' for Inactive)
REMARK    1  A    between atoms: C_1  and  S_35
REMARK    2  A    between atoms: C_3  and  S_35
REMARK    3  A    between atoms: C_4  and  C_8
REMARK    4  A    between atoms: C_4  and  O_32
REMARK    5  A    between atoms: C_5  and  N_28
REMARK    6  A    between atoms: C_6  and  O_31
REMARK    7  A    between atoms: C_10  and  N_27
REMARK    8  A    between atoms: C_11  and  N_27
REMARK    9  A    between atoms: C_14  and  C_15
REMARK   10  A    between atoms: C_16  and  C_17
REMARK   11  A    between atoms: C_20  and  O_34
REMARK                            x       y       z     vdW  Elec       q    Type
REMARK                         _______ _______ _______ _____ _____    ______ ____
ROOT
ATOM      1  C   UNL     1     -20.326   8.253  -1.550  0.00  0.00    +0.000 C 
ATOM      2  C   UNL     1     -18.040   7.533  -1.544  0.00  0.00    +0.000 C 
ATOM      3  C   UNL     1     -18.409   6.479  -0.508  0.00  0.00    +0.000 C 
ATOM      4  C   UNL     1     -19.895   6.186  -0.611  0.00  0.00    +0.000 C 
ATOM      5  C   UNL     1     -18.906   8.813  -1.470  0.00  0.00    +0.000 C 
ATOM      6  O   UNL     1     -20.587   7.424  -0.441  0.00  0.00    +0.000 OA
ENDROOT
BRANCH   2   9
ATOM      7  C   UNL     1     -15.867   8.353  -0.521  0.00  0.00    +0.000 A 
ATOM      8  C   UNL     1     -14.578   8.358  -0.990  0.00  0.00    +0.000 A 
ATOM      9  N   UNL     1     -16.595   7.807  -1.506  0.00  0.00    +0.000 N 
ATOM     10  N   UNL     1     -15.817   7.483  -2.561  0.00  0.00    +0.000 NA
ATOM     11  N   UNL     1     -14.592   7.822  -2.244  0.00  0.00    +0.000 NA
BRANCH   8  15
ATOM     12  C   UNL     1     -10.893   9.659   0.885  0.00  0.00    +0.000 A 
ATOM     13  C   UNL     1     -11.144   9.846  -0.472  0.00  0.00    +0.000 A 
ATOM     14  C   UNL     1     -12.318   9.444  -1.072  0.00  0.00    +0.000 A 
ATOM     15  C   UNL     1     -13.321   8.811  -0.365  0.00  0.00    +0.000 A 
ATOM     16  C   UNL     1     -13.080   8.616   0.981  0.00  0.00    +0.000 A 
ATOM     17  C   UNL     1     -11.921   9.041   1.588  0.00  0.00    +0.000 A 
ATOM     18  F   UNL     1     -10.212  10.426  -1.246  0.00  0.00    +0.000 F 
ATOM     19  F   UNL     1     -12.491   9.648  -2.385  0.00  0.00    +0.000 F 
ATOM     20  F   UNL     1     -14.017   8.021   1.720  0.00  0.00    +0.000 F 
ATOM     21  F   UNL     1     -11.828   8.891   2.909  0.00  0.00    +0.000 F 
BRANCH  12  23
ATOM     22  C   UNL     1      -9.364  11.186   2.372  0.00  0.00    +0.000 C 
ATOM     23  N   UNL     1      -9.633  10.040   1.519  0.00  0.00    +0.000 N 
ATOM     24  H   UNL     1      -8.841   9.423   1.340  0.00  0.00    +0.000 HD
ENDBRANCH  12  23
ENDBRANCH   8  15
ENDBRANCH   2   9
BRANCH   3  25
ATOM     25  O   UNL     1     -18.131   6.970   0.789  0.00  0.00    +0.000 OA
ATOM     26  H   UNL     1     -17.193   7.159   0.864  0.00  0.00    +0.000 HD
ENDBRANCH   3  25
BRANCH   5  27
ATOM     27  O   UNL     1     -18.643   9.618  -2.607  0.00  0.00    +0.000 OA
ATOM     28  H   UNL     1     -19.178  10.414  -2.565  0.00  0.00    +0.000 HD
ENDBRANCH   5  27
BRANCH   4  29
ATOM     29  C   UNL     1     -20.395   5.311   0.484  0.00  0.00    +0.000 C 
BRANCH  29  30
ATOM     30  O   UNL     1     -21.750   5.057   0.249  0.00  0.00    +0.000 OA
ATOM     31  H   UNL     1     -22.094   4.493   0.945  0.00  0.00    +0.000 HD
ENDBRANCH  29  30
ENDBRANCH   4  29
BRANCH   1  32
ATOM     32  S   UNL     1     -21.621   9.501  -1.626  0.00  0.00    +0.000 S 
BRANCH  32  34
ATOM     33  C   UNL     1     -23.540   7.572  -1.767  0.00  0.00    +0.000 A 
ATOM     34  C   UNL     1     -22.821   8.514  -2.491  0.00  0.00    +0.000 A 
ATOM     35  C   UNL     1     -24.434   6.736  -2.408  0.00  0.00    +0.000 A 
ATOM     36  C   UNL     1     -24.645   6.818  -3.779  0.00  0.00    +0.000 A 
ATOM     37  C   UNL     1     -25.606   5.891  -4.474  0.00  0.00    +0.000 C 
ATOM     38  C   UNL     1     -23.928   7.774  -4.489  0.00  0.00    +0.000 A 
ATOM     39  C   UNL     1     -23.023   8.611  -3.861  0.00  0.00    +0.000 A 
ENDBRANCH  32  34
ENDBRANCH   1  32
TORSDOF 9
