REMARK  Name = 6qqv_ligand
REMARK  5 active torsions:
REMARK  status: ('A' for Active; 'I' for Inactive)
REMARK    1  A    between atoms: C_1  and  C_21
REMARK    2  A    between atoms: C_5  and  N_24
REMARK    3  A    between atoms: C_7  and  C_8
REMARK    4  A    between atoms: C_9  and  C_14
REMARK    5  A    between atoms: C_14  and  N_15
REMARK                            x       y       z     vdW  Elec       q    Type
REMARK                         _______ _______ _______ _____ _____    ______ ____
ROOT
ATOM      1  C   UNL     1     -22.098 -19.204  12.046  0.00  0.00    +0.000 A 
ATOM      2  C   UNL     1     -24.449 -18.876  11.638  0.00  0.00    +0.000 A 
ATOM      3  C   UNL     1     -25.652 -21.097  10.919  0.00  0.00    +0.000 A 
ATOM      4  N   UNL     1     -23.855 -22.349  11.003  0.00  0.00    +0.000 N 
ATOM      5  C   UNL     1     -23.458 -21.082  11.358  0.00  0.00    +0.000 A 
ATOM      6  C   UNL     1     -22.191 -20.552  11.716  0.00  0.00    +0.000 A 
ATOM      7  C   UNL     1     -23.207 -18.352  11.999  0.00  0.00    +0.000 A 
ATOM      8  C   UNL     1     -24.560 -20.253  11.322  0.00  0.00    +0.000 A 
ATOM      9  C   UNL     1     -25.163 -22.381  10.742  0.00  0.00    +0.000 A 
ENDROOT
BRANCH   1  12
ATOM     10  C   UNL     1     -20.318 -17.351  12.314  0.00  0.00    +0.000 C 
ATOM     11  C   UNL     1     -18.954 -17.362  12.611  0.00  0.00    +0.000 C 
ATOM     12  C   UNL     1     -20.735 -18.665  12.361  0.00  0.00    +0.000 C 
ATOM     13  N   UNL     1     -18.597 -18.653  12.787  0.00  0.00    +0.000 NA
ATOM     14  N   UNL     1     -19.688 -19.445  12.623  0.00  0.00    +0.000 NA
BRANCH  11  15
ATOM     15  N   UNL     1     -18.069 -16.246  12.712  0.00  0.00    +0.000 N 
ATOM     16  H   UNL     1     -18.421 -15.301  12.559  0.00  0.00    +0.000 HD
ATOM     17  H   UNL     1     -17.085 -16.394  12.938  0.00  0.00    +0.000 HD
ENDBRANCH  11  15
ENDBRANCH   1  12
BRANCH   4  18
ATOM     18  C   UNL     1     -22.985 -23.477  10.929  0.00  0.00    +0.000 C 
BRANCH  18  20
ATOM     19  C   UNL     1     -22.423 -22.902   8.442  0.00  0.00    +0.000 A 
ATOM     20  C   UNL     1     -22.293 -23.694   9.593  0.00  0.00    +0.000 A 
ATOM     21  C   UNL     1     -21.460 -24.811   9.556  0.00  0.00    +0.000 A 
ATOM     22  C   UNL     1     -20.766 -25.145   8.411  0.00  0.00    +0.000 A 
ATOM     23  C   UNL     1     -20.896 -24.359   7.282  0.00  0.00    +0.000 A 
ATOM     24  C   UNL     1     -21.719 -23.250   7.298  0.00  0.00    +0.000 A 
BRANCH  19  26
ATOM     25  N   UNL     1     -23.943 -20.732   8.227  0.00  0.00    +0.000 NA
ATOM     26  C   UNL     1     -23.295 -21.668   8.326  0.00  0.00    +0.000 C 
ENDBRANCH  19  26
ENDBRANCH  18  20
ENDBRANCH   4  18
TORSDOF 5
