REMARK  Name = 6qlq_ligand
REMARK  9 active torsions:
REMARK  status: ('A' for Active; 'I' for Inactive)
REMARK    1  A    between atoms: C_1  and  C_12
REMARK    2  A    between atoms: C_1  and  O_27
REMARK    3  A    between atoms: C_2  and  C_16
REMARK    4  A    between atoms: C_6  and  C_7
REMARK    5  A    between atoms: C_10  and  S_30
REMARK    6  A    between atoms: C_11  and  S_30
REMARK    7  A    between atoms: C_13  and  O_28
REMARK    8  A    between atoms: C_14  and  N_23
REMARK    9  A    between atoms: C_19  and  O_29
REMARK                            x       y       z     vdW  Elec       q    Type
REMARK                         _______ _______ _______ _____ _____    ______ ____
ROOT
ATOM      1  C   UNL     1     -19.955   8.436  -1.710  0.00  0.00    +0.000 C 
ATOM      2  C   UNL     1     -19.872   6.235  -0.848  0.00  0.00    +0.000 C 
ATOM      3  C   UNL     1     -18.375   6.408  -0.541  0.00  0.00    +0.000 C 
ATOM      4  C   UNL     1     -17.781   7.468  -1.516  0.00  0.00    +0.000 C 
ATOM      5  C   UNL     1     -18.501   8.792  -1.421  0.00  0.00    +0.000 C 
ATOM      6  O   UNL     1     -20.487   7.524  -0.774  0.00  0.00    +0.000 OA
ENDROOT
BRANCH   4   9
ATOM      7  C   UNL     1     -14.355   8.023  -0.393  0.00  0.00    +0.000 A 
ATOM      8  C   UNL     1     -15.711   8.152  -0.158  0.00  0.00    +0.000 A 
ATOM      9  N   UNL     1     -16.360   7.593  -1.268  0.00  0.00    +0.000 N 
ATOM     10  N   UNL     1     -14.245   7.341  -1.631  0.00  0.00    +0.000 NA
ATOM     11  N   UNL     1     -15.408   7.104  -2.129  0.00  0.00    +0.000 NA
BRANCH   7  15
ATOM     12  C   UNL     1     -12.343   8.896   2.647  0.00  0.00    +0.000 A 
ATOM     13  C   UNL     1     -11.031   8.985   2.139  0.00  0.00    +0.000 A 
ATOM     14  C   UNL     1     -11.930   8.441  -0.031  0.00  0.00    +0.000 A 
ATOM     15  C   UNL     1     -13.257   8.379   0.443  0.00  0.00    +0.000 A 
ATOM     16  C   UNL     1     -13.404   8.591   1.807  0.00  0.00    +0.000 A 
ATOM     17  C   UNL     1     -10.843   8.752   0.775  0.00  0.00    +0.000 A 
ATOM     18  F   UNL     1     -10.003   9.260   2.916  0.00  0.00    +0.000 F 
ENDBRANCH   7  15
ENDBRANCH   4   9
BRANCH   3  19
ATOM     19  O   UNL     1     -18.162   6.867   0.780  0.00  0.00    +0.000 OA
ATOM     20  H   UNL     1     -17.220   6.963   0.936  0.00  0.00    +0.000 HD
ENDBRANCH   3  19
BRANCH   5  21
ATOM     21  O   UNL     1     -17.979   9.621  -2.444  0.00  0.00    +0.000 OA
ATOM     22  H   UNL     1     -17.064   9.835  -2.246  0.00  0.00    +0.000 HD
ENDBRANCH   5  21
BRANCH   2  23
ATOM     23  C   UNL     1     -20.527   5.317   0.170  0.00  0.00    +0.000 C 
BRANCH  23  24
ATOM     24  O   UNL     1     -21.861   5.127  -0.243  0.00  0.00    +0.000 OA
ATOM     25  H   UNL     1     -22.308   4.549   0.380  0.00  0.00    +0.000 HD
ENDBRANCH  23  24
ENDBRANCH   2  23
BRANCH   1  26
ATOM     26  S   UNL     1     -21.000   9.921  -1.780  0.00  0.00    +0.000 S 
BRANCH  26  31
ATOM     27  C   UNL     1     -25.225   8.680  -6.281  0.00  0.00    +0.000 C 
ATOM     28  C   UNL     1     -24.196   8.977  -5.181  0.00  0.00    +0.000 A 
ATOM     29  C   UNL     1     -23.686  10.289  -4.963  0.00  0.00    +0.000 A 
ATOM     30  C   UNL     1     -22.733  10.598  -3.955  0.00  0.00    +0.000 A 
ATOM     31  C   UNL     1     -22.232   9.599  -3.087  0.00  0.00    +0.000 A 
ATOM     32  C   UNL     1     -22.724   8.292  -3.294  0.00  0.00    +0.000 A 
ATOM     33  C   UNL     1     -23.675   7.993  -4.308  0.00  0.00    +0.000 A 
ENDBRANCH  26  31
ENDBRANCH   1  26
TORSDOF 8
