REMARK  Name = 6qqt_ligand
REMARK  6 active torsions:
REMARK  status: ('A' for Active; 'I' for Inactive)
REMARK    1  A    between atoms: C_2  and  C_18
REMARK    2  A    between atoms: N_8  and  C_9
REMARK    3  A    between atoms: C_12  and  C_13
REMARK    4  A    between atoms: N_17  and  C_18
REMARK    5  A    between atoms: C_20  and  O_21
REMARK    6  A    between atoms: O_21  and  C_22
REMARK                            x       y       z     vdW  Elec       q    Type
REMARK                         _______ _______ _______ _____ _____    ______ ____
ROOT
ATOM      1  C   UNL     1     -23.397  21.018 -11.269  0.00  0.00    +0.000 A 
ATOM      2  C   UNL     1     -25.101  22.306 -10.632  0.00  0.00    +0.000 A 
ATOM      3  C   UNL     1     -25.571  21.025 -10.787  0.00  0.00    +0.000 A 
ATOM      4  C   UNL     1     -22.021  19.124 -11.964  0.00  0.00    +0.000 A 
ATOM      5  C   UNL     1     -23.108  18.272 -11.887  0.00  0.00    +0.000 A 
ATOM      6  C   UNL     1     -24.359  18.802 -11.499  0.00  0.00    +0.000 A 
ATOM      7  C   UNL     1     -24.481  20.192 -11.200  0.00  0.00    +0.000 A 
ATOM      8  N   UNL     1     -23.797  22.286 -10.925  0.00  0.00    +0.000 N 
ATOM      9  C   UNL     1     -22.120  20.497 -11.652  0.00  0.00    +0.000 A 
ENDROOT
BRANCH   4  14
ATOM     10  C   UNL     1     -20.258  17.316 -12.197  0.00  0.00    +0.000 C 
ATOM     11  C   UNL     1     -18.839  17.317 -12.506  0.00  0.00    +0.000 C 
ATOM     12  N   UNL     1     -18.479  18.598 -12.705  0.00  0.00    +0.000 NA
ATOM     13  N   UNL     1     -19.566  19.383 -12.543  0.00  0.00    +0.000 NA
ATOM     14  C   UNL     1     -20.656  18.593 -12.280  0.00  0.00    +0.000 C 
BRANCH  11  15
ATOM     15  N   UNL     1     -17.954  16.197 -12.571  0.00  0.00    +0.000 N 
ATOM     16  H   UNL     1     -18.306  15.258 -12.387  0.00  0.00    +0.000 HD
ATOM     17  H   UNL     1     -16.970  16.337 -12.801  0.00  0.00    +0.000 HD
ENDBRANCH  11  15
ENDBRANCH   4  14
BRANCH   8  18
ATOM     18  C   UNL     1     -22.896  23.441 -10.891  0.00  0.00    +0.000 C 
BRANCH  18  19
ATOM     19  C   UNL     1     -22.176  23.571  -9.564  0.00  0.00    +0.000 A 
ATOM     20  C   UNL     1     -21.933  23.134  -7.148  0.00  0.00    +0.000 A 
ATOM     21  C   UNL     1     -21.034  24.283  -9.538  0.00  0.00    +0.000 A 
ATOM     22  C   UNL     1     -22.662  22.973  -8.393  0.00  0.00    +0.000 A 
ATOM     23  C   UNL     1     -20.773  23.857  -7.133  0.00  0.00    +0.000 A 
ATOM     24  C   UNL     1     -20.297  24.439  -8.293  0.00  0.00    +0.000 A 
BRANCH  23  25
ATOM     25  O   UNL     1     -20.050  24.024  -5.927  0.00  0.00    +0.000 OA
ATOM     26  C   UNL     1     -20.503  25.163  -5.150  0.00  0.00    +0.000 C 
ENDBRANCH  23  25
ENDBRANCH  18  19
ENDBRANCH   8  18
TORSDOF 5
