REMARK  Name = 6np3_ligand
REMARK  15 active torsions:
REMARK  status: ('A' for Active; 'I' for Inactive)
REMARK    1  A    between atoms: C_1  and  O_2
REMARK    2  A    between atoms: O_2  and  C_16
REMARK    3  A    between atoms: C_3  and  N_4
REMARK    4  A    between atoms: C_7  and  C_9
REMARK    5  A    between atoms: C_9  and  N_10
REMARK    6  A    between atoms: C_11  and  N_12
REMARK    7  A    between atoms: C_14  and  N_15
REMARK    8  A    between atoms: C_17  and  O_18
REMARK    9  A    between atoms: C_19  and  O_20
REMARK   10  A    between atoms: O_20  and  C_21
REMARK   11  A    between atoms: C_22  and  O_23
REMARK   12  A    between atoms: C_24  and  N_25
REMARK   13  A    between atoms: N_25  and  C_31
REMARK   14  A    between atoms: C_26  and  O_27
REMARK   15  A    between atoms: C_26  and  C_30
REMARK                            x       y       z     vdW  Elec       q    Type
REMARK                         _______ _______ _______ _____ _____    ______ ____
ROOT
ATOM      1  C   UNL     1     112.509 -15.293  -5.624  0.00  0.00    +0.000 C 
ATOM      2  C   UNL     1     112.758 -16.762  -5.295  0.00  0.00    +0.000 C 
ATOM      3  C   UNL     1     111.411 -17.472  -5.298  0.00  0.00    +0.000 C 
ATOM      4  C   UNL     1     110.728 -17.416  -6.666  0.00  0.00    +0.000 C 
ATOM      5  C   UNL     1     110.595 -15.956  -7.110  0.00  0.00    +0.000 C 
ATOM      6  C   UNL     1     111.919 -15.196  -7.034  0.00  0.00    +0.000 C 
ENDROOT
BRANCH   1   7
ATOM      7  N   UNL     1     113.752 -14.523  -5.548  0.00  0.00    +0.000 N 
ATOM      8  H   UNL     1     113.560 -13.546  -5.771  0.00  0.00    +0.000 HD
ATOM      9  H   UNL     1     114.134 -14.588  -4.604  0.00  0.00    +0.000 HD
ATOM     10  H   UNL     1     114.425 -14.900  -6.215  0.00  0.00    +0.000 HD
ENDBRANCH   1   7
BRANCH   3  11
ATOM     11  N   UNL     1     111.603 -18.879  -4.937  0.00  0.00    +0.000 N 
ATOM     12  H   UNL     1     110.701 -19.355  -4.939  0.00  0.00    +0.000 HD
ATOM     13  H   UNL     1     112.224 -19.321  -5.615  0.00  0.00    +0.000 HD
ATOM     14  H   UNL     1     112.017 -18.937  -4.007  0.00  0.00    +0.000 HD
ENDBRANCH   3  11
BRANCH   5  15
ATOM     15  O   UNL     1     110.144 -15.929  -8.455  0.00  0.00    +0.000 OA
ATOM     16  H   UNL     1     110.057 -15.018  -8.744  0.00  0.00    +0.000 HD
ENDBRANCH   5  15
BRANCH   4  17
ATOM     17  O   UNL     1     109.469 -18.078  -6.476  0.00  0.00    +0.000 OA
BRANCH  17  18
ATOM     18  C   UNL     1     108.567 -18.118  -7.598  0.00  0.00    +0.000 C 
ATOM     19  C   UNL     1     107.231 -18.695  -7.113  0.00  0.00    +0.000 C 
ATOM     20  C   UNL     1     106.493 -19.287  -8.293  0.00  0.00    +0.000 C 
ATOM     21  C   UNL     1     107.281 -20.546  -8.706  0.00  0.00    +0.000 C 
ATOM     22  C   UNL     1     108.785 -20.303  -8.514  0.00  0.00    +0.000 C 
ATOM     23  O   UNL     1     109.071 -18.923  -8.667  0.00  0.00    +0.000 OA
BRANCH  19  24
ATOM     24  N   UNL     1     107.441 -19.795  -6.192  0.00  0.00    +0.000 N 
ATOM     25  H   UNL     1     107.939 -19.457  -5.368  0.00  0.00    +0.000 HD
ATOM     26  H   UNL     1     106.539 -20.179  -5.912  0.00  0.00    +0.000 HD
ATOM     27  H   UNL     1     107.993 -20.520  -6.650  0.00  0.00    +0.000 HD
ENDBRANCH  19  24
BRANCH  22  28
ATOM     28  C   UNL     1     109.501 -21.115  -9.591  0.00  0.00    +0.000 C 
BRANCH  28  29
ATOM     29  N   UNL     1     110.706 -20.435 -10.079  0.00  0.00    +0.000 N 
ATOM     30  H   UNL     1     111.153 -21.009 -10.794  0.00  0.00    +0.000 HD
ATOM     31  H   UNL     1     110.448 -19.532 -10.478  0.00  0.00    +0.000 HD
ATOM     32  H   UNL     1     111.353 -20.293  -9.303  0.00  0.00    +0.000 HD
ENDBRANCH  28  29
ENDBRANCH  22  28
ENDBRANCH  17  18
ENDBRANCH   4  17
BRANCH   6  33
ATOM     33  O   UNL     1     111.649 -13.826  -7.300  0.00  0.00    +0.000 OA
BRANCH  33  34
ATOM     34  C   UNL     1     112.453 -13.211  -8.309  0.00  0.00    +0.000 C 
ATOM     35  C   UNL     1     112.579 -11.740  -7.911  0.00  0.00    +0.000 C 
ATOM     36  C   UNL     1     111.196 -11.070  -7.880  0.00  0.00    +0.000 C 
ATOM     37  C   UNL     1     110.517 -11.291  -9.241  0.00  0.00    +0.000 C 
ATOM     38  C   UNL     1     110.541 -12.778  -9.614  0.00  0.00    +0.000 C 
ATOM     39  O   UNL     1     111.856 -13.313  -9.611  0.00  0.00    +0.000 OA
ATOM     40  C   UNL     1     109.056 -10.835  -9.183  0.00  0.00    +0.000 C 
BRANCH  36  41
ATOM     41  N   UNL     1     111.348  -9.624  -7.615  0.00  0.00    +0.000 N 
ATOM     42  C   UNL     1     110.505  -9.233  -6.469  0.00  0.00    +0.000 C 
ATOM     43  H   UNL     1     111.059  -9.098  -8.440  0.00  0.00    +0.000 HD
ATOM     44  H   UNL     1     112.324  -9.422  -7.399  0.00  0.00    +0.000 HD
ENDBRANCH  36  41
BRANCH  35  45
ATOM     45  O   UNL     1     113.117 -11.681  -6.599  0.00  0.00    +0.000 OA
ATOM     46  H   UNL     1     113.204 -10.763  -6.331  0.00  0.00    +0.000 HD
ENDBRANCH  35  45
BRANCH  37  47
ATOM     47  O   UNL     1     111.229 -10.519 -10.200  0.00  0.00    +0.000 OA
ATOM     48  H   UNL     1     110.828 -10.636 -11.065  0.00  0.00    +0.000 HD
ENDBRANCH  37  47
ENDBRANCH  33  34
ENDBRANCH   6  33
TORSDOF 13
