REMARK  Name = 6cjp_ligand
REMARK  8 active torsions:
REMARK  status: ('A' for Active; 'I' for Inactive)
REMARK    1  A    between atoms: C_5  and  O_25
REMARK    2  A    between atoms: C_5  and  C_26
REMARK    3  A    between atoms: C_7  and  O_28
REMARK    4  A    between atoms: C_8  and  O_28
REMARK    5  A    between atoms: O_9  and  C_10
REMARK    6  A    between atoms: C_14  and  C_15
REMARK    7  A    between atoms: N_24  and  O_25
REMARK    8  A    between atoms: C_32  and  O_33
REMARK                            x       y       z     vdW  Elec       q    Type
REMARK                         _______ _______ _______ _____ _____    ______ ____
ROOT
ATOM      1  C   UNL     1      19.673  24.008  52.997  0.00  0.00    +0.000 C 
ATOM      2  C   UNL     1      22.017  26.134  54.043  0.00  0.00    +0.000 C 
ATOM      3  C   UNL     1      24.582  26.180  54.298  0.00  0.00    +0.000 C 
ATOM      4  C   UNL     1      25.295  23.456  52.861  0.00  0.00    +0.000 C 
ATOM      5  C   UNL     1      20.715  25.194  49.469  0.00  0.00    +0.000 A 
ATOM      6  C   UNL     1      20.684  24.492  50.669  0.00  0.00    +0.000 A 
ATOM      7  C   UNL     1      21.743  23.400  50.842  0.00  0.00    +0.000 C 
ATOM      8  O   UNL     1      22.414  23.278  52.084  0.00  0.00    +0.000 OA
ATOM      9  C   UNL     1      23.231  22.155  52.215  0.00  0.00    +0.000 C 
ATOM     10  C   UNL     1      23.237  21.665  53.651  0.00  0.00    +0.000 C 
ATOM     11  O   UNL     1      22.005  22.669  49.902  0.00  0.00    +0.000 OA
ATOM     12  C   UNL     1      19.730  24.804  51.662  0.00  0.00    +0.000 A 
ATOM     13  C   UNL     1      19.897  24.733  54.330  0.00  0.00    +0.000 C 
ATOM     14  C   UNL     1      21.270  25.255  54.773  0.00  0.00    +0.000 C 
ATOM     15  C   UNL     1      23.343  26.619  54.637  0.00  0.00    +0.000 C 
ATOM     16  C   UNL     1      24.826  24.930  53.167  0.00  0.00    +0.000 C 
ATOM     17  O   UNL     1      25.970  24.624  52.224  0.00  0.00    +0.000 OA
ATOM     18  C   UNL     1      24.620  22.580  51.821  0.00  0.00    +0.000 C 
ATOM     19  N   UNL     1      18.888  24.871  55.184  0.00  0.00    +0.000 NA
ATOM     20  C   UNL     1      18.797  25.817  51.399  0.00  0.00    +0.000 A 
ATOM     21  C   UNL     1      18.835  26.518  50.183  0.00  0.00    +0.000 A 
ATOM     22  C   UNL     1      19.794  26.208  49.220  0.00  0.00    +0.000 A 
ENDROOT
BRANCH   5  23
ATOM     23  O   UNL     1      21.688  24.864  48.503  0.00  0.00    +0.000 OA
ATOM     24  H   UNL     1      21.581  25.432  47.736  0.00  0.00    +0.000 HD
ENDBRANCH   5  23
BRANCH  21  25
ATOM     25  O   UNL     1      17.909  27.549  49.918  0.00  0.00    +0.000 OA
ATOM     26  H   UNL     1      18.080  27.915  49.047  0.00  0.00    +0.000 HD
ENDBRANCH  21  25
BRANCH  19  27
ATOM     27  O   UNL     1      17.634  24.404  54.870  0.00  0.00    +0.000 OA
BRANCH  27  28
ATOM     28  C   UNL     1      16.741  24.939  55.836  0.00  0.00    +0.000 C 
BRANCH  28  31
ATOM     29  C   UNL     1      16.377  27.422  55.997  0.00  0.00    +0.000 A 
ATOM     30  C   UNL     1      15.378  28.650  54.184  0.00  0.00    +0.000 A 
ATOM     31  C   UNL     1      16.254  26.254  55.253  0.00  0.00    +0.000 A 
ATOM     32  C   UNL     1      15.940  28.623  55.456  0.00  0.00    +0.000 A 
ATOM     33  C   UNL     1      15.258  27.472  53.442  0.00  0.00    +0.000 A 
ATOM     34  C   UNL     1      15.700  26.272  53.976  0.00  0.00    +0.000 A 
BRANCH  30  36
ATOM     35  C   UNL     1      14.530  30.086  52.383  0.00  0.00    +0.000 C 
ATOM     36  O   UNL     1      14.947  29.913  53.719  0.00  0.00    +0.000 OA
ENDBRANCH  30  36
ENDBRANCH  28  31
ENDBRANCH  27  28
ENDBRANCH  19  27
TORSDOF 6
