REMARK  Name = 6jsf_ligand
REMARK  7 active torsions:
REMARK  status: ('A' for Active; 'I' for Inactive)
REMARK    1  A    between atoms: C_4  and  C_6
REMARK    2  A    between atoms: C_6  and  C_19
REMARK    3  A    between atoms: C_7  and  C_28
REMARK    4  A    between atoms: N_9  and  C_24
REMARK    5  A    between atoms: O_10  and  C_17
REMARK    6  A    between atoms: O_10  and  C_21
REMARK    7  A    between atoms: C_14  and  C_15
REMARK                            x       y       z     vdW  Elec       q    Type
REMARK                         _______ _______ _______ _____ _____    ______ ____
ROOT
ATOM      1  C   UNL     1     -21.602 -39.305  -6.857  0.00  0.00    +0.000 A 
ATOM      2  C   UNL     1     -21.433 -38.433  -7.938  0.00  0.00    +0.000 A 
ATOM      3  C   UNL     1     -20.173 -38.294  -8.539  0.00  0.00    +0.000 A 
ATOM      4  C   UNL     1     -18.993 -39.064  -8.029  0.00  0.00    +0.000 A 
ATOM      5  C   UNL     1     -19.256 -39.919  -6.953  0.00  0.00    +0.000 A 
ATOM      6  C   UNL     1     -20.518 -40.053  -6.370  0.00  0.00    +0.000 A 
ATOM      7  F   UNL     1     -20.034 -37.460  -9.573  0.00  0.00    +0.000 F 
ENDROOT
BRANCH   4   8
ATOM      8  C   UNL     1     -17.587 -39.014  -8.642  0.00  0.00    +0.000 C 
ATOM      9  C   UNL     1     -17.501 -40.023  -9.841  0.00  0.00    +0.000 C 
ATOM     10  N   UNL     1     -14.923 -40.178  -6.426  0.00  0.00    +0.000 NA
ATOM     11  C   UNL     1     -17.315 -41.496  -9.417  0.00  0.00    +0.000 C 
ATOM     12  C   UNL     1     -15.840 -40.258  -7.390  0.00  0.00    +0.000 C 
ATOM     13  C   UNL     1     -17.190 -37.621  -9.129  0.00  0.00    +0.000 C 
ATOM     14  N   UNL     1     -16.592 -39.246  -7.579  0.00  0.00    +0.000 N 
ATOM     15  S   UNL     1     -15.966 -41.672  -8.292  0.00  0.00    +0.000 S 
ATOM     16  H   UNL     1     -14.841 -39.327  -5.869  0.00  0.00    +0.000 HD
ATOM     17  H   UNL     1     -16.491 -38.492  -6.900  0.00  0.00    +0.000 HD
BRANCH   9  18
ATOM     18  C   UNL     1     -18.637 -39.909 -10.828  0.00  0.00    +0.000 A 
ATOM     19  C   UNL     1     -18.528 -39.020 -11.905  0.00  0.00    +0.000 A 
ATOM     20  C   UNL     1     -19.556 -38.881 -12.839  0.00  0.00    +0.000 A 
ATOM     21  C   UNL     1     -20.725 -39.635 -12.698  0.00  0.00    +0.000 A 
ATOM     22  C   UNL     1     -20.865 -40.526 -11.628  0.00  0.00    +0.000 A 
ATOM     23  C   UNL     1     -19.823 -40.667 -10.701  0.00  0.00    +0.000 A 
ENDBRANCH   9  18
ENDBRANCH   4   8
BRANCH   6  24
ATOM     24  N   UNL     1     -20.588 -40.917  -5.314  0.00  0.00    +0.000 N 
ATOM     25  C   UNL     1     -21.654 -41.463  -4.722  0.00  0.00    +0.000 C 
ATOM     26  O   UNL     1     -22.798 -41.367  -5.138  0.00  0.00    +0.000 OA
ATOM     27  H   UNL     1     -19.688 -41.187  -4.917  0.00  0.00    +0.000 HD
BRANCH  25  29
ATOM     28  N   UNL     1     -20.263 -42.017  -2.754  0.00  0.00    +0.000 NA
ATOM     29  C   UNL     1     -21.415 -42.217  -3.451  0.00  0.00    +0.000 A 
ATOM     30  C   UNL     1     -20.024 -42.679  -1.604  0.00  0.00    +0.000 A 
ATOM     31  C   UNL     1     -20.977 -43.574  -1.124  0.00  0.00    +0.000 A 
ATOM     32  C   UNL     1     -22.367 -43.123  -2.974  0.00  0.00    +0.000 A 
ATOM     33  N   UNL     1     -22.130 -43.774  -1.827  0.00  0.00    +0.000 NA
BRANCH  31  34
ATOM     34  O   UNL     1     -20.731 -44.239   0.051  0.00  0.00    +0.000 OA
BRANCH  34  36
ATOM     35  F   UNL     1     -22.755 -44.096   1.101  0.00  0.00    +0.000 F 
ATOM     36  C   UNL     1     -21.745 -44.954   0.762  0.00  0.00    +0.000 C 
ENDBRANCH  34  36
ENDBRANCH  31  34
ENDBRANCH  25  29
ENDBRANCH   6  24
TORSDOF 6
