REMARK  Name = 6nrg_ligand
REMARK  3 active torsions:
REMARK  status: ('A' for Active; 'I' for Inactive)
REMARK    1  A    between atoms: C_3  and  C_14
REMARK    2  A    between atoms: C_6  and  C_20
REMARK    3  A    between atoms: C_7  and  C_24
REMARK                            x       y       z     vdW  Elec       q    Type
REMARK                         _______ _______ _______ _____ _____    ______ ____
ROOT
ATOM      1  C   UNL     1      27.417  -5.630   7.979  0.00  0.00    +0.000 C 
ATOM      2  C   UNL     1      27.217  -6.623   7.115  0.00  0.00    +0.000 C 
ATOM      3  C   UNL     1      26.816  -3.878  11.072  0.00  0.00    +0.000 A 
ATOM      4  O   UNL     1      26.671  -5.440   9.129  0.00  0.00    +0.000 OA
ATOM      5  C   UNL     1      27.598  -2.881  11.662  0.00  0.00    +0.000 A 
ATOM      6  C   UNL     1      28.718  -2.376  11.007  0.00  0.00    +0.000 A 
ATOM      7  C   UNL     1      29.071  -2.848   9.749  0.00  0.00    +0.000 A 
ATOM      8  C   UNL     1      28.315  -3.851   9.158  0.00  0.00    +0.000 A 
ATOM      9  C   UNL     1      28.488  -4.634   7.921  0.00  0.00    +0.000 C 
ATOM     10  O   UNL     1      29.340  -4.497   6.999  0.00  0.00    +0.000 OA
ATOM     11  C   UNL     1      27.213  -4.378   9.829  0.00  0.00    +0.000 A 
ENDROOT
BRANCH   2  18
ATOM     12  C   UNL     1      24.874  -7.468   7.621  0.00  0.00    +0.000 A 
ATOM     13  C   UNL     1      23.842  -8.331   7.302  0.00  0.00    +0.000 A 
ATOM     14  C   UNL     1      23.960  -9.230   6.241  0.00  0.00    +0.000 A 
ATOM     15  C   UNL     1      25.152  -9.204   5.526  0.00  0.00    +0.000 A 
ATOM     16  F   UNL     1      25.318 -10.056   4.488  0.00  0.00    +0.000 F 
ATOM     17  C   UNL     1      26.190  -8.359   5.821  0.00  0.00    +0.000 A 
ATOM     18  C   UNL     1      26.063  -7.473   6.891  0.00  0.00    +0.000 A 
BRANCH  14  19
ATOM     19  C   UNL     1      22.841 -10.140   5.968  0.00  0.00    +0.000 A 
ATOM     20  N   UNL     1      22.817 -11.065   5.005  0.00  0.00    +0.000 NA
ATOM     21  N   UNL     1      21.652 -11.740   5.076  0.00  0.00    +0.000 NA
ATOM     22  N   UNL     1      20.995 -11.224   6.063  0.00  0.00    +0.000 NA
ATOM     23  N   UNL     1      21.703 -10.221   6.642  0.00  0.00    +0.000 NA
ENDBRANCH  14  19
ENDBRANCH   2  18
BRANCH   3  24
ATOM     24  C   UNL     1      25.572  -4.307  11.796  0.00  0.00    +0.000 C 
ATOM     25  O   UNL     1      25.159  -3.634  12.752  0.00  0.00    +0.000 OA
ATOM     26  N   UNL     1      24.946  -5.416  11.381  0.00  0.00    +0.000 N 
ATOM     27  H   UNL     1      24.100  -5.732  11.855  0.00  0.00    +0.000 HD
ATOM     28  H   UNL     1      25.315  -5.944  10.591  0.00  0.00    +0.000 HD
ENDBRANCH   3  24
TORSDOF 3
