REMARK  Name = 6g2e_ligand
REMARK  7 active torsions:
REMARK  status: ('A' for Active; 'I' for Inactive)
REMARK    1  A    between atoms: N_1  and  C_3
REMARK    2  A    between atoms: C_4  and  C_17
REMARK    3  A    between atoms: C_5  and  C_18
REMARK    4  A    between atoms: C_10  and  C_15
REMARK    5  A    between atoms: C_11  and  C_14
REMARK    6  A    between atoms: C_11  and  N_21
REMARK    7  A    between atoms: C_13  and  C_16
REMARK                            x       y       z     vdW  Elec       q    Type
REMARK                         _______ _______ _______ _____ _____    ______ ____
ROOT
ATOM      1  C   UNL     1      -4.430   7.731 -22.219  0.00  0.00    +0.000 A 
ATOM      2  C   UNL     1      -3.829   8.507 -24.422  0.00  0.00    +0.000 A 
ATOM      3  C   UNL     1      -6.122   8.143 -23.886  0.00  0.00    +0.000 A 
ATOM      4  C   UNL     1      -6.906   7.354 -21.655  0.00  0.00    +0.000 C 
ATOM      5  C   UNL     1      -3.433   8.110 -23.149  0.00  0.00    +0.000 A 
ATOM      6  C   UNL     1      -5.159   8.523 -24.813  0.00  0.00    +0.000 A 
ATOM      7  C   UNL     1      -5.791   7.734 -22.596  0.00  0.00    +0.000 A 
ATOM      8  C   UNL     1      -1.963   8.140 -22.823  0.00  0.00    +0.000 C 
ENDROOT
BRANCH   1  13
ATOM      9  N   UNL     1      -3.333   6.970 -18.778  0.00  0.00    +0.000 N 
ATOM     10  C   UNL     1      -3.935   5.852 -19.244  0.00  0.00    +0.000 A 
ATOM     11  C   UNL     1      -2.785   7.151 -17.435  0.00  0.00    +0.000 C 
ATOM     12  C   UNL     1      -3.430   7.926 -19.813  0.00  0.00    +0.000 A 
ATOM     13  C   UNL     1      -4.043   7.265 -20.860  0.00  0.00    +0.000 A 
ATOM     14  N   UNL     1      -4.338   5.959 -20.488  0.00  0.00    +0.000 NA
BRANCH  12  15
ATOM     15  C   UNL     1      -2.888   9.300 -19.723  0.00  0.00    +0.000 A 
ATOM     16  C   UNL     1      -3.114  11.659 -20.014  0.00  0.00    +0.000 A 
ATOM     17  C   UNL     1      -1.562   9.528 -19.365  0.00  0.00    +0.000 A 
ATOM     18  C   UNL     1      -1.096  10.829 -19.335  0.00  0.00    +0.000 A 
ATOM     19  C   UNL     1      -3.667  10.394 -20.089  0.00  0.00    +0.000 A 
ATOM     20  N   UNL     1      -1.845  11.893 -19.652  0.00  0.00    +0.000 NA
ENDBRANCH  12  15
ENDBRANCH   1  13
BRANCH   6  21
ATOM     21  C   UNL     1      -5.543   8.932 -26.208  0.00  0.00    +0.000 C 
BRANCH  21  22
ATOM     22  N   UNL     1      -5.567   7.779 -27.144  0.00  0.00    +0.000 N 
ATOM     23  H   UNL     1      -5.832   8.103 -28.074  0.00  0.00    +0.000 HD
ATOM     24  H   UNL     1      -4.641   7.354 -27.181  0.00  0.00    +0.000 HD
ATOM     25  H   UNL     1      -6.245   7.091 -26.817  0.00  0.00    +0.000 HD
ENDBRANCH  21  22
ENDBRANCH   6  21
TORSDOF 4
