REMARK  Name = 6ffg_ligand
REMARK  7 active torsions:
REMARK  status: ('A' for Active; 'I' for Inactive)
REMARK    1  A    between atoms: C_2  and  C_13
REMARK    2  A    between atoms: C_6  and  C_15
REMARK    3  A    between atoms: C_7  and  C_8
REMARK    4  A    between atoms: C_11  and  C_29
REMARK    5  A    between atoms: N_12  and  C_13
REMARK    6  A    between atoms: C_15  and  O_16
REMARK    7  A    between atoms: C_19  and  C_23
REMARK                            x       y       z     vdW  Elec       q    Type
REMARK                         _______ _______ _______ _____ _____    ______ ____
ROOT
ATOM      1  C   UNL     1      42.162  16.920   9.574  0.00  0.00    +0.000 C 
ATOM      2  C   UNL     1      39.324  15.515   6.022  0.00  0.00    +0.000 C 
ATOM      3  C   UNL     1      40.662  15.500   6.689  0.00  0.00    +0.000 C 
ATOM      4  O   UNL     1      41.419  14.549   6.586  0.00  0.00    +0.000 OA
ATOM      5  N   UNL     1      41.012  16.594   7.438  0.00  0.00    +0.000 N 
ATOM      6  C   UNL     1      42.342  16.593   8.099  0.00  0.00    +0.000 C 
ATOM      7  N   UNL     1      41.260  18.043   9.790  0.00  0.00    +0.000 N 
ATOM      8  C   UNL     1      40.364  18.482   8.785  0.00  0.00    +0.000 A 
ATOM      9  C   UNL     1      39.624  19.639   9.000  0.00  0.00    +0.000 A 
ATOM     10  C   UNL     1      38.735  20.090   8.028  0.00  0.00    +0.000 A 
ATOM     11  C   UNL     1      38.604  19.369   6.845  0.00  0.00    +0.000 A 
ATOM     12  C   UNL     1      39.339  18.218   6.626  0.00  0.00    +0.000 A 
ATOM     13  C   UNL     1      40.218  17.764   7.602  0.00  0.00    +0.000 A 
ENDROOT
BRANCH  10  14
ATOM     14  C   UNL     1      37.945  21.326   8.250  0.00  0.00    +0.000 C 
ATOM     15  C   UNL     1      36.706  21.496   7.754  0.00  0.00    +0.000 C 
ATOM     16  C   UNL     1      35.853  22.721   7.947  0.00  0.00    +0.000 C 
ATOM     17  N   UNL     1      36.659  23.850   8.423  0.00  0.00    +0.000 N 
ATOM     18  C   UNL     1      37.563  23.429   9.483  0.00  0.00    +0.000 C 
ATOM     19  C   UNL     1      38.595  22.400   9.067  0.00  0.00    +0.000 C 
ATOM     20  H   UNL     1      36.035  24.569   8.789  0.00  0.00    +0.000 HD
ATOM     21  H   UNL     1      37.210  24.212   7.645  0.00  0.00    +0.000 HD
ENDBRANCH  10  14
BRANCH   6  22
ATOM     22  C   UNL     1      43.266  17.538   7.340  0.00  0.00    +0.000 C 
ATOM     23  C   UNL     1      44.742  17.319   7.459  0.00  0.00    +0.000 C 
ATOM     24  C   UNL     1      44.051  17.000   6.181  0.00  0.00    +0.000 C 
ENDBRANCH   6  22
BRANCH   7  25
ATOM     25  C   UNL     1      41.406  18.756  11.057  0.00  0.00    +0.000 C 
BRANCH  25  26
ATOM     26  C   UNL     1      40.554  18.164  12.152  0.00  0.00    +0.000 A 
ATOM     27  C   UNL     1      38.759  16.679  12.784  0.00  0.00    +0.000 A 
ATOM     28  C   UNL     1      38.937  17.015  14.107  0.00  0.00    +0.000 A 
ATOM     29  C   UNL     1      39.917  17.921  14.463  0.00  0.00    +0.000 A 
ATOM     30  C   UNL     1      40.737  18.505  13.500  0.00  0.00    +0.000 A 
ATOM     31  C   UNL     1      39.561  17.249  11.814  0.00  0.00    +0.000 A 
BRANCH  30  32
ATOM     32  C   UNL     1      41.801  19.493  13.913  0.00  0.00    +0.000 C 
BRANCH  32  33
ATOM     33  O   UNL     1      43.090  18.904  13.951  0.00  0.00    +0.000 OA
ATOM     34  H   UNL     1      43.734  19.564  14.217  0.00  0.00    +0.000 HD
ENDBRANCH  32  33
ENDBRANCH  30  32
ENDBRANCH  25  26
ENDBRANCH   7  25
TORSDOF 6
