REMARK  Name = 6kjf_ligand
REMARK  19 active torsions:
REMARK  status: ('A' for Active; 'I' for Inactive)
REMARK    1  A    between atoms: O_2  and  C_7
REMARK    2  A    between atoms: O_3  and  C_9
REMARK    3  A    between atoms: O_4  and  C_11
REMARK    4  A    between atoms: O_5  and  C_22
REMARK    5  A    between atoms: O_5  and  C_25
REMARK    6  A    between atoms: C_7  and  C_8
REMARK    7  A    between atoms: C_8  and  C_9
REMARK    8  A    between atoms: C_9  and  C_10
REMARK    9  A    between atoms: C_10  and  C_11
REMARK   10  A    between atoms: C_11  and  C_12
REMARK   11  A    between atoms: C_12  and  C_13
REMARK   12  A    between atoms: C_13  and  C_14
REMARK   13  A    between atoms: C_15  and  C_24
REMARK   14  A    between atoms: C_20  and  C_31
REMARK   15  A    between atoms: C_25  and  C_26
REMARK   16  A    between atoms: C_26  and  C_27
REMARK   17  A    between atoms: C_26  and  C_29
REMARK   18  A    between atoms: C_26  and  C_30
REMARK   19  A    between atoms: C_27  and  C_28
REMARK                            x       y       z     vdW  Elec       q    Type
REMARK                         _______ _______ _______ _____ _____    ______ ____
ROOT
ATOM      1  C   UNL     1      -8.218  35.000  -5.406  0.00  0.00    +0.000 C 
ATOM      2  C   UNL     1      -6.867  35.615  -5.110  0.00  0.00    +0.000 C 
ATOM      3  C   UNL     1      -5.879  34.555  -4.781  0.00  0.00    +0.000 C 
ATOM      4  C   UNL     1      -6.275  33.477  -4.187  0.00  0.00    +0.000 C 
ATOM      5  C   UNL     1      -7.626  33.344  -3.672  0.00  0.00    +0.000 C 
ATOM      6  C   UNL     1      -7.902  32.505  -2.704  0.00  0.00    +0.000 C 
ATOM      7  C   UNL     1      -9.323  32.368  -2.290  0.00  0.00    +0.000 C 
ATOM      8  C   UNL     1     -10.225  32.294  -3.511  0.00  0.00    +0.000 C 
ATOM      9  C   UNL     1      -9.989  33.383  -4.531  0.00  0.00    +0.000 C 
ATOM     10  C   UNL     1      -8.719  34.183  -4.238  0.00  0.00    +0.000 C 
ATOM     11  C   UNL     1      -6.910  36.646  -3.994  0.00  0.00    +0.000 C 
ATOM     12  C   UNL     1      -9.455  31.118  -1.463  0.00  0.00    +0.000 C 
ENDROOT
BRANCH   9  13
ATOM     13  O   UNL     1     -10.113  32.942  -5.862  0.00  0.00    +0.000 OA
BRANCH  13  15
ATOM     14  O   UNL     1     -12.212  34.097  -5.945  0.00  0.00    +0.000 OA
ATOM     15  C   UNL     1     -11.368  33.437  -6.504  0.00  0.00    +0.000 C 
BRANCH  15  16
ATOM     16  C   UNL     1     -11.768  33.080  -7.869  0.00  0.00    +0.000 C 
ATOM     17  C   UNL     1     -11.819  31.528  -7.778  0.00  0.00    +0.000 C 
ATOM     18  C   UNL     1     -13.069  33.788  -8.030  0.00  0.00    +0.000 C 
BRANCH  16  19
ATOM     19  C   UNL     1     -10.917  33.673  -9.011  0.00  0.00    +0.000 C 
ATOM     20  C   UNL     1     -11.742  34.440 -10.046  0.00  0.00    +0.000 C 
ENDBRANCH  16  19
ENDBRANCH  15  16
ENDBRANCH  13  15
ENDBRANCH   9  13
BRANCH   1  21
ATOM     21  C   UNL     1      -9.221  36.064  -5.720  0.00  0.00    +0.000 C 
BRANCH  21  22
ATOM     22  C   UNL     1      -8.892  36.731  -7.038  0.00  0.00    +0.000 C 
BRANCH  22  23
ATOM     23  C   UNL     1      -9.996  37.697  -7.389  0.00  0.00    +0.000 C 
BRANCH  23  24
ATOM     24  O   UNL     1     -10.247  38.567  -6.320  0.00  0.00    +0.000 OA
ATOM     25  H   UNL     1     -10.544  38.061  -5.560  0.00  0.00    +0.000 HD
ENDBRANCH  23  24
BRANCH  23  26
ATOM     26  C   UNL     1      -9.543  38.542  -8.526  0.00  0.00    +0.000 C 
BRANCH  26  27
ATOM     27  C   UNL     1      -9.730  37.810  -9.824  0.00  0.00    +0.000 C 
BRANCH  27  28
ATOM     28  O   UNL     1     -11.039  38.049 -10.274  0.00  0.00    +0.000 OA
ATOM     29  H   UNL     1     -11.664  37.678  -9.647  0.00  0.00    +0.000 HD
ENDBRANCH  27  28
BRANCH  27  30
ATOM     30  C   UNL     1      -8.793  38.407 -10.835  0.00  0.00    +0.000 C 
BRANCH  30  32
ATOM     31  O   UNL     1      -9.483  38.330 -13.074  0.00  0.00    +0.000 OA
ATOM     32  C   UNL     1      -9.648  38.821 -11.980  0.00  0.00    +0.000 C 
BRANCH  32  33
ATOM     33  O   UNL     1     -10.595  39.727 -11.778  0.00  0.00    +0.000 OA
ATOM     34  H   UNL     1     -10.581  40.004 -10.859  0.00  0.00    +0.000 HD
ENDBRANCH  32  33
ENDBRANCH  30  32
ENDBRANCH  27  30
ENDBRANCH  26  27
ENDBRANCH  23  26
ENDBRANCH  22  23
ENDBRANCH  21  22
ENDBRANCH   1  21
TORSDOF 14
