REMARK  Name = 6miv_ligand
REMARK  58 active torsions:
REMARK  status: ('A' for Active; 'I' for Inactive)
REMARK    1  A    between atoms: C_1  and  O_27
REMARK    2  A    between atoms: C_2  and  C_3
REMARK    3  A    between atoms: C_2  and  O_31
REMARK    4  A    between atoms: C_4  and  O_32
REMARK    5  A    between atoms: C_5  and  O_29
REMARK    6  A    between atoms: C_6  and  O_28
REMARK    7  A    between atoms: C_7  and  C_8
REMARK    8  A    between atoms: C_8  and  C_9
REMARK    9  A    between atoms: C_9  and  C_10
REMARK   10  A    between atoms: C_10  and  C_11
REMARK   11  A    between atoms: C_11  and  C_12
REMARK   12  A    between atoms: C_12  and  C_13
REMARK   13  A    between atoms: C_13  and  C_14
REMARK   14  A    between atoms: C_14  and  C_15
REMARK   15  A    between atoms: C_15  and  C_16
REMARK   16  A    between atoms: C_16  and  C_17
REMARK   17  A    between atoms: C_17  and  C_18
REMARK   18  A    between atoms: C_18  and  C_19
REMARK   19  A    between atoms: C_19  and  C_20
REMARK   20  A    between atoms: C_20  and  C_21
REMARK   21  A    between atoms: C_21  and  O_22
REMARK   22  A    between atoms: C_21  and  C_23
REMARK   23  A    between atoms: C_23  and  O_24
REMARK   24  A    between atoms: C_23  and  C_25
REMARK   25  A    between atoms: C_25  and  C_26
REMARK   26  A    between atoms: C_25  and  N_44
REMARK   27  A    between atoms: C_26  and  O_27
REMARK   28  A    between atoms: O_32  and  C_33
REMARK   29  A    between atoms: C_33  and  C_34
REMARK   30  A    between atoms: C_37  and  C_38
REMARK   31  A    between atoms: C_38  and  C_39
REMARK   32  A    between atoms: C_38  and  C_40
REMARK   33  A    between atoms: C_38  and  C_41
REMARK   34  A    between atoms: C_45  and  C_47
REMARK   35  A    between atoms: C_47  and  C_48
REMARK   36  A    between atoms: C_48  and  C_49
REMARK   37  A    between atoms: C_49  and  C_50
REMARK   38  A    between atoms: C_50  and  C_51
REMARK   39  A    between atoms: C_51  and  C_52
REMARK   40  A    between atoms: C_52  and  C_53
REMARK   41  A    between atoms: C_53  and  C_54
REMARK   42  A    between atoms: C_54  and  C_55
REMARK   43  A    between atoms: C_55  and  C_56
REMARK   44  A    between atoms: C_56  and  C_57
REMARK   45  A    between atoms: C_57  and  C_58
REMARK   46  A    between atoms: C_58  and  C_59
REMARK   47  A    between atoms: C_59  and  C_60
REMARK   48  A    between atoms: C_60  and  C_61
REMARK   49  A    between atoms: C_61  and  C_62
REMARK   50  A    between atoms: C_62  and  C_63
REMARK   51  A    between atoms: C_63  and  C_64
REMARK   52  A    between atoms: C_64  and  C_65
REMARK   53  A    between atoms: C_65  and  C_66
REMARK   54  A    between atoms: C_66  and  C_67
REMARK   55  A    between atoms: C_67  and  C_68
REMARK   56  A    between atoms: C_68  and  C_69
REMARK   57  A    between atoms: C_69  and  C_70
REMARK   58  A    between atoms: C_70  and  C_71
REMARK                            x       y       z     vdW  Elec       q    Type
REMARK                         _______ _______ _______ _____ _____    ______ ____
ROOT
ATOM      1  C   UNL     1      92.590  27.890 170.323  0.00  0.00    +0.000 C 
ENDROOT
BRANCH   1   2
ATOM      2  N   UNL     1      93.004  26.490 170.220  0.00  0.00    +0.000 N 
ATOM      3  C   UNL     1      92.620  25.633 171.172  0.00  0.00    +0.000 C 
ATOM      4  O   UNL     1      91.866  25.932 172.104  0.00  0.00    +0.000 OA
ATOM      5  H   UNL     1      93.575  26.174 169.436  0.00  0.00    +0.000 HD
BRANCH   3   6
ATOM      6  C   UNL     1      93.163  24.223 171.018  0.00  0.00    +0.000 C 
BRANCH   6   7
ATOM      7  C   UNL     1      92.061  23.174 171.205  0.00  0.00    +0.000 C 
BRANCH   7   8
ATOM      8  C   UNL     1      91.130  23.084 169.997  0.00  0.00    +0.000 C 
BRANCH   8   9
ATOM      9  C   UNL     1      90.024  22.051 170.319  0.00  0.00    +0.000 C 
BRANCH   9  10
ATOM     10  C   UNL     1      88.964  21.954 169.217  0.00  0.00    +0.000 C 
BRANCH  10  11
ATOM     11  C   UNL     1      87.919  20.897 169.677  0.00  0.00    +0.000 C 
BRANCH  11  12
ATOM     12  C   UNL     1      86.551  21.255 169.128  0.00  0.00    +0.000 C 
BRANCH  12  13
ATOM     13  C   UNL     1      85.494  20.204 169.537  0.00  0.00    +0.000 C 
BRANCH  13  14
ATOM     14  C   UNL     1      84.774  20.640 170.812  0.00  0.00    +0.000 C 
BRANCH  14  15
ATOM     15  C   UNL     1      83.269  20.565 170.693  0.00  0.00    +0.000 C 
BRANCH  15  16
ATOM     16  C   UNL     1      82.683  19.984 171.970  0.00  0.00    +0.000 C 
BRANCH  16  17
ATOM     17  C   UNL     1      82.934  20.832 173.212  0.00  0.00    +0.000 C 
BRANCH  17  18
ATOM     18  C   UNL     1      82.264  20.117 174.409  0.00  0.00    +0.000 C 
BRANCH  18  19
ATOM     19  C   UNL     1      83.289  19.689 175.443  0.00  0.00    +0.000 C 
BRANCH  19  20
ATOM     20  C   UNL     1      82.753  18.523 176.307  0.00  0.00    +0.000 C 
BRANCH  20  21
ATOM     21  C   UNL     1      83.824  17.429 176.301  0.00  0.00    +0.000 C 
BRANCH  21  22
ATOM     22  C   UNL     1      83.418  16.180 177.086  0.00  0.00    +0.000 C 
BRANCH  22  23
ATOM     23  C   UNL     1      84.640  15.273 177.300  0.00  0.00    +0.000 C 
BRANCH  23  24
ATOM     24  C   UNL     1      85.155  14.612 175.998  0.00  0.00    +0.000 C 
BRANCH  24  25
ATOM     25  C   UNL     1      86.586  15.055 175.747  0.00  0.00    +0.000 C 
BRANCH  25  26
ATOM     26  C   UNL     1      87.433  14.037 174.972  0.00  0.00    +0.000 C 
BRANCH  26  27
ATOM     27  C   UNL     1      87.002  13.887 173.505  0.00  0.00    +0.000 C 
BRANCH  27  28
ATOM     28  C   UNL     1      87.063  15.195 172.748  0.00  0.00    +0.000 C 
BRANCH  28  29
ATOM     29  C   UNL     1      87.066  14.896 171.252  0.00  0.00    +0.000 C 
ATOM     30  C   UNL     1      86.819  16.184 170.471  0.00  0.00    +0.000 C 
ENDBRANCH  28  29
ENDBRANCH  27  28
ENDBRANCH  26  27
ENDBRANCH  25  26
ENDBRANCH  24  25
ENDBRANCH  23  24
ENDBRANCH  22  23
ENDBRANCH  21  22
ENDBRANCH  20  21
ENDBRANCH  19  20
ENDBRANCH  18  19
ENDBRANCH  17  18
ENDBRANCH  16  17
ENDBRANCH  15  16
ENDBRANCH  14  15
ENDBRANCH  13  14
ENDBRANCH  12  13
ENDBRANCH  11  12
ENDBRANCH  10  11
ENDBRANCH   9  10
ENDBRANCH   8   9
ENDBRANCH   7   8
ENDBRANCH   6   7
ENDBRANCH   3   6
ENDBRANCH   1   2
BRANCH   1  31
ATOM     31  C   UNL     1      92.564  28.578 168.969  0.00  0.00    +0.000 C 
BRANCH  31  32
ATOM     32  O   UNL     1      92.108  29.895 169.228  0.00  0.00    +0.000 OA
ATOM     33  H   UNL     1      92.691  30.315 169.865  0.00  0.00    +0.000 HD
ENDBRANCH  31  32
BRANCH  31  34
ATOM     34  C   UNL     1      91.630  27.899 167.946  0.00  0.00    +0.000 C 
BRANCH  34  35
ATOM     35  O   UNL     1      91.685  28.652 166.690  0.00  0.00    +0.000 OA
ATOM     36  H   UNL     1      92.591  28.680 166.374  0.00  0.00    +0.000 HD
ENDBRANCH  34  35
BRANCH  34  37
ATOM     37  C   UNL     1      90.196  27.829 168.488  0.00  0.00    +0.000 C 
BRANCH  37  38
ATOM     38  C   UNL     1      89.178  27.402 167.407  0.00  0.00    +0.000 C 
BRANCH  38  39
ATOM     39  C   UNL     1      89.496  26.001 166.880  0.00  0.00    +0.000 C 
BRANCH  39  40
ATOM     40  C   UNL     1      88.284  25.409 166.124  0.00  0.00    +0.000 C 
BRANCH  40  41
ATOM     41  C   UNL     1      88.082  26.112 164.770  0.00  0.00    +0.000 C 
BRANCH  41  42
ATOM     42  C   UNL     1      86.987  25.358 163.972  0.00  0.00    +0.000 C 
BRANCH  42  43
ATOM     43  C   UNL     1      87.017  25.736 162.486  0.00  0.00    +0.000 C 
BRANCH  43  44
ATOM     44  C   UNL     1      86.120  26.950 162.314  0.00  0.00    +0.000 C 
BRANCH  44  45
ATOM     45  C   UNL     1      86.049  27.387 160.856  0.00  0.00    +0.000 C 
BRANCH  45  46
ATOM     46  C   UNL     1      85.380  28.749 160.916  0.00  0.00    +0.000 C 
BRANCH  46  47
ATOM     47  C   UNL     1      85.246  29.382 159.544  0.00  0.00    +0.000 C 
BRANCH  47  48
ATOM     48  C   UNL     1      84.252  30.552 159.666  0.00  0.00    +0.000 C 
BRANCH  48  50
ATOM     49  C   UNL     1      83.822  32.958 159.127  0.00  0.00    +0.000 C 
ATOM     50  C   UNL     1      84.869  31.830 159.147  0.00  0.00    +0.000 C 
ENDBRANCH  48  50
ENDBRANCH  47  48
ENDBRANCH  46  47
ENDBRANCH  45  46
ENDBRANCH  44  45
ENDBRANCH  43  44
ENDBRANCH  42  43
ENDBRANCH  41  42
ENDBRANCH  40  41
ENDBRANCH  39  40
ENDBRANCH  38  39
ENDBRANCH  37  38
ENDBRANCH  34  37
ENDBRANCH  31  34
ENDBRANCH   1  31
BRANCH   1  51
ATOM     51  C   UNL     1      93.590  28.613 171.251  0.00  0.00    +0.000 C 
BRANCH  51  52
ATOM     52  O   UNL     1      94.862  28.518 170.631  0.00  0.00    +0.000 OA
BRANCH  52  53
ATOM     53  C   UNL     1      95.934  29.109 171.358  0.00  0.00    +0.000 C 
ATOM     54  C   UNL     1      96.406  27.057 172.486  0.00  0.00    +0.000 C 
ATOM     55  C   UNL     1      97.675  26.848 171.673  0.00  0.00    +0.000 C 
ATOM     56  C   UNL     1      97.528  27.523 170.326  0.00  0.00    +0.000 C 
ATOM     57  C   UNL     1      97.184  28.981 170.529  0.00  0.00    +0.000 C 
ATOM     58  O   UNL     1      96.111  28.451 172.623  0.00  0.00    +0.000 OA
BRANCH  56  59
ATOM     59  O   UNL     1      98.768  27.441 169.642  0.00  0.00    +0.000 OA
ATOM     60  H   UNL     1      98.997  26.519 169.507  0.00  0.00    +0.000 HD
ENDBRANCH  56  59
BRANCH  57  61
ATOM     61  O   UNL     1      96.978  29.604 169.264  0.00  0.00    +0.000 OA
ATOM     62  H   UNL     1      96.760  30.529 169.396  0.00  0.00    +0.000 HD
ENDBRANCH  57  61
BRANCH  54  63
ATOM     63  C   UNL     1      96.555  26.578 173.941  0.00  0.00    +0.000 C 
BRANCH  63  64
ATOM     64  O   UNL     1      96.561  25.150 173.949  0.00  0.00    +0.000 OA
ATOM     65  H   UNL     1      96.653  24.837 174.852  0.00  0.00    +0.000 HD
ENDBRANCH  63  64
ENDBRANCH  54  63
BRANCH  55  66
ATOM     66  O   UNL     1      98.827  27.444 172.286  0.00  0.00    +0.000 OA
BRANCH  66  67
ATOM     67  C   UNL     1      99.619  26.470 173.035  0.00  0.00    +0.000 C 
BRANCH  67  68
ATOM     68  C   UNL     1     100.602  25.728 172.318  0.00  0.00    +0.000 A 
ATOM     69  C   UNL     1     100.559  24.325 172.369  0.00  0.00    +0.000 A 
ATOM     70  C   UNL     1     101.512  23.550 171.715  0.00  0.00    +0.000 A 
ATOM     71  C   UNL     1     102.561  24.137 170.991  0.00  0.00    +0.000 A 
ATOM     72  C   UNL     1     102.618  25.544 170.964  0.00  0.00    +0.000 A 
ATOM     73  C   UNL     1     101.653  26.335 171.622  0.00  0.00    +0.000 A 
BRANCH  71  74
ATOM     74  C   UNL     1     103.554  23.331 170.316  0.00  0.00    +0.000 C 
ATOM     75  C   UNL     1     103.376  23.381 168.794  0.00  0.00    +0.000 C 
ATOM     76  C   UNL     1     103.495  21.850 170.740  0.00  0.00    +0.000 C 
ATOM     77  C   UNL     1     104.976  23.839 170.628  0.00  0.00    +0.000 C 
ENDBRANCH  71  74
ENDBRANCH  67  68
ENDBRANCH  66  67
ENDBRANCH  55  66
ENDBRANCH  52  53
ENDBRANCH  51  52
ENDBRANCH   1  51
TORSDOF 53
