REMARK  Name = 6ten_ligand
REMARK  9 active torsions:
REMARK  status: ('A' for Active; 'I' for Inactive)
REMARK    1  A    between atoms: C_1  and  N_27
REMARK    2  A    between atoms: C_4  and  C_5
REMARK    3  A    between atoms: C_4  and  C_11
REMARK    4  A    between atoms: C_4  and  N_27
REMARK    5  A    between atoms: C_17  and  S_21
REMARK    6  A    between atoms: C_19  and  N_20
REMARK    7  A    between atoms: S_21  and  N_24
REMARK    8  A    between atoms: C_36  and  O_38
REMARK    9  A    between atoms: O_38  and  C_39
REMARK                            x       y       z     vdW  Elec       q    Type
REMARK                         _______ _______ _______ _____ _____    ______ ____
ROOT
ATOM      1  C   UNL     1      31.079 -10.548  10.639  0.00  0.00    +0.000 A 
ATOM      2  C   UNL     1      30.860 -11.000   9.321  0.00  0.00    +0.000 A 
ATOM      3  C   UNL     1      29.609 -11.506   8.960  0.00  0.00    +0.000 A 
ATOM      4  C   UNL     1      28.583 -11.591   9.917  0.00  0.00    +0.000 A 
ATOM      5  C   UNL     1      28.791 -11.175  11.238  0.00  0.00    +0.000 A 
ATOM      6  C   UNL     1      30.047 -10.632  11.601  0.00  0.00    +0.000 A 
ENDROOT
BRANCH   6   7
ATOM      7  N   UNL     1      30.286 -10.102  12.832  0.00  0.00    +0.000 N 
ATOM      8  C   UNL     1      29.865 -10.601  14.008  0.00  0.00    +0.000 A 
ATOM      9  N   UNL     1      30.206  -9.982  15.158  0.00  0.00    +0.000 NA
ATOM     10  C   UNL     1      29.785 -10.487  16.344  0.00  0.00    +0.000 A 
ATOM     11  N   UNL     1      29.067 -11.641  16.367  0.00  0.00    +0.000 NA
ATOM     12  C   UNL     1      28.720 -12.269  15.218  0.00  0.00    +0.000 A 
ATOM     13  N   UNL     1      29.162 -11.754  14.048  0.00  0.00    +0.000 NA
ATOM     14  N   UNL     1      30.100  -9.850  17.494  0.00  0.00    +0.000 N 
ATOM     15  H   UNL     1      30.837  -9.244  12.866  0.00  0.00    +0.000 HD
ATOM     16  H   UNL     1      30.652  -8.993  17.468  0.00  0.00    +0.000 HD
ATOM     17  H   UNL     1      29.785 -10.226  18.388  0.00  0.00    +0.000 HD
BRANCH  12  18
ATOM     18  O   UNL     1      27.967 -13.454  15.225  0.00  0.00    +0.000 OA
ATOM     19  C   UNL     1      27.247 -13.865  14.042  0.00  0.00    +0.000 C 
ENDBRANCH  12  18
ENDBRANCH   6   7
BRANCH   4  20
ATOM     20  S   UNL     1      27.010 -12.266   9.470  0.00  0.00    +0.000 S 
ATOM     21  O   UNL     1      27.249 -13.440   8.661  0.00  0.00    +0.000 OA
ATOM     22  O   UNL     1      26.166 -12.367  10.630  0.00  0.00    +0.000 OA
BRANCH  20  23
ATOM     23  N   UNL     1      26.423 -11.015   8.571  0.00  0.00    +0.000 NA
ATOM     24  H   UNL     1      26.273 -11.133   7.569  0.00  0.00    +0.000 HD
ATOM     25  H   UNL     1      26.209 -10.123   9.017  0.00  0.00    +0.000 HD
ENDBRANCH  20  23
ENDBRANCH   4  20
BRANCH   1  26
ATOM     26  N   UNL     1      32.266 -10.049  11.042  0.00  0.00    +0.000 N 
ATOM     27  H   UNL     1      32.394  -9.869  12.038  0.00  0.00    +0.000 HD
BRANCH  26  28
ATOM     28  C   UNL     1      33.377  -9.751  10.149  0.00  0.00    +0.000 C 
BRANCH  28  29
ATOM     29  C   UNL     1      33.145  -8.512   9.257  0.00  0.00    +0.000 A 
ATOM     30  C   UNL     1      33.392  -8.559   7.858  0.00  0.00    +0.000 A 
ATOM     31  C   UNL     1      33.149  -7.496   7.001  0.00  0.00    +0.000 A 
ATOM     32  C   UNL     1      32.724  -6.250   7.506  0.00  0.00    +0.000 A 
ATOM     33  C   UNL     1      32.422  -6.184   8.886  0.00  0.00    +0.000 A 
ATOM     34  C   UNL     1      32.603  -7.301   9.743  0.00  0.00    +0.000 A 
ATOM     35  C   UNL     1      34.005  -9.118   5.833  0.00  0.00    +0.000 C 
ATOM     36  O   UNL     1      33.831  -9.664   7.156  0.00  0.00    +0.000 OA
ATOM     37  O   UNL     1      33.512  -7.755   5.670  0.00  0.00    +0.000 OA
ATOM     38  F   UNL     1      35.289  -9.237   5.479  0.00  0.00    +0.000 F 
ATOM     39  F   UNL     1      33.301  -9.921   5.017  0.00  0.00    +0.000 F 
ENDBRANCH  28  29
BRANCH  28  40
ATOM     40  C   UNL     1      34.648  -9.468  10.955  0.00  0.00    +0.000 A 
ATOM     41  C   UNL     1      35.929  -9.867  10.505  0.00  0.00    +0.000 A 
ATOM     42  C   UNL     1      37.085  -9.548  11.229  0.00  0.00    +0.000 A 
ATOM     43  C   UNL     1      36.953  -8.764  12.394  0.00  0.00    +0.000 A 
ATOM     44  C   UNL     1      35.665  -8.376  12.812  0.00  0.00    +0.000 A 
ATOM     45  N   UNL     1      34.565  -8.723  12.085  0.00  0.00    +0.000 NA
ATOM     46 CL   UNL     1      36.085 -10.833   9.075  0.00  0.00    +0.000 Cl
ENDBRANCH  28  40
ENDBRANCH  26  28
ENDBRANCH   1  26
TORSDOF 8
