REMARK  Name = 6hhp_ligand
REMARK  22 active torsions:
REMARK  status: ('A' for Active; 'I' for Inactive)
REMARK    1  A    between atoms: N_1  and  CA_2
REMARK    2  A    between atoms: CA_2  and  C_3
REMARK    3  A    between atoms: CA_2  and  CB_5
REMARK    4  A    between atoms: CB_5  and  CG_6
REMARK    5  A    between atoms: CA_13  and  C_14
REMARK    6  A    between atoms: N_19  and  CA_20
REMARK    7  A    between atoms: CA_20  and  C_21
REMARK    8  A    between atoms: CA_20  and  CB_23
REMARK    9  A    between atoms: N_24  and  C_25
REMARK   10  A    between atoms: C_25  and  C_26
REMARK   11  A    between atoms: C_25  and  C_33
REMARK   12  A    between atoms: C_26  and  C_27
REMARK   13  A    between atoms: C_26  and  O_28
REMARK   14  A    between atoms: O_28  and  P_29
REMARK   15  A    between atoms: P_29  and  O_30
REMARK   16  A    between atoms: P_29  and  O_32
REMARK   17  A    between atoms: N_35  and  CA_36
REMARK   18  A    between atoms: CA_36  and  C_37
REMARK   19  A    between atoms: CA_36  and  CB_39
REMARK   20  A    between atoms: C_37  and  OXT_42
REMARK   21  A    between atoms: CB_39  and  CG1_40
REMARK   22  A    between atoms: CB_39  and  CG2_41
REMARK                            x       y       z     vdW  Elec       q    Type
REMARK                         _______ _______ _______ _____ _____    ______ ____
ROOT
ATOM      1  C   ALA A   3      14.410  15.285  10.213  0.00  0.00    +0.000 C 
ATOM      2  O   ALA A   3      14.355  16.252  10.962  0.00  0.00    +0.000 OA
ATOM      3  N   UNK A   4      15.417  15.061   9.371  0.00  0.00    +0.000 N 
ATOM      4  H   UNK A   4      15.445  14.162   8.889  0.00  0.00    +0.000 HD
ENDROOT
BRANCH   1   5
ATOM      5  CA  ALA A   3      13.295  14.240  10.215  0.00  0.00    +0.000 C 
ATOM      6  CB  ALA A   3      12.115  14.731   9.390  0.00  0.00    +0.000 C 
BRANCH   5   9
ATOM      7  C   PRO A   2      13.578  13.075  12.320  0.00  0.00    +0.000 C 
ATOM      8  O   PRO A   2      14.653  12.597  11.953  0.00  0.00    +0.000 OA
ATOM      9  N   ALA A   3      12.865  13.906  11.563  0.00  0.00    +0.000 N 
ATOM     10  H   ALA A   3      12.006  14.313  11.933  0.00  0.00    +0.000 HD
BRANCH   7  14
ATOM     11  C   PHE A   1      13.210  10.331  13.760  0.00  0.00    +0.000 C 
ATOM     12  O   PHE A   1      12.365  10.188  12.869  0.00  0.00    +0.000 OA
ATOM     13  N   PRO A   2      13.558  11.526  14.238  0.00  0.00    +0.000 N 
ATOM     14  CA  PRO A   2      12.970  12.746  13.675  0.00  0.00    +0.000 C 
ATOM     15  CB  PRO A   2      13.315  13.815  14.715  0.00  0.00    +0.000 C 
ATOM     16  CG  PRO A   2      14.615  13.343  15.288  0.00  0.00    +0.000 C 
ATOM     17  CD  PRO A   2      14.519  11.825  15.318  0.00  0.00    +0.000 C 
BRANCH  11  18
ATOM     18  CA  PHE A   1      13.908   9.108  14.373  0.00  0.00    +0.000 C 
BRANCH  18  19
ATOM     19  N   PHE A   1      13.043   7.932  14.362  0.00  0.00    +0.000 N 
ATOM     20  H1  PHE A   1      12.177   8.144  14.858  0.00  0.00    +0.000 HD
ATOM     21  H2  PHE A   1      12.831   7.677  13.398  0.00  0.00    +0.000 HD
ATOM     22  H3  PHE A   1      13.519   7.157  14.823  0.00  0.00    +0.000 HD
ENDBRANCH  18  19
BRANCH  18  23
ATOM     23  CB  PHE A   1      15.221   8.813  13.631  0.00  0.00    +0.000 C 
BRANCH  23  24
ATOM     24  CG  PHE A   1      15.033   8.200  12.270  0.00  0.00    +0.000 A 
ATOM     25  CD1 PHE A   1      14.913   9.000  11.141  0.00  0.00    +0.000 A 
ATOM     26  CD2 PHE A   1      14.988   6.820  12.115  0.00  0.00    +0.000 A 
ATOM     27  CE1 PHE A   1      14.739   8.430   9.884  0.00  0.00    +0.000 A 
ATOM     28  CE2 PHE A   1      14.814   6.249  10.864  0.00  0.00    +0.000 A 
ATOM     29  CZ  PHE A   1      14.693   7.051   9.750  0.00  0.00    +0.000 A 
ENDBRANCH  23  24
ENDBRANCH  18  23
ENDBRANCH  11  18
ENDBRANCH   7  14
ENDBRANCH   5   9
ENDBRANCH   1   5
BRANCH   3  30
ATOM     30  C   UNK A   4      16.489  16.023   9.091  0.00  0.00    +0.000 C 
BRANCH  30  31
ATOM     31  C   UNK A   4      16.717  16.021   7.583  0.00  0.00    +0.000 C 
ATOM     32  O   UNK A   4      16.390  15.036   6.917  0.00  0.00    +0.000 OA
ATOM     33  N   VAL A   5      17.250  17.111   7.035  0.00  0.00    +0.000 N 
ATOM     34  H   VAL A   5      17.462  17.915   7.626  0.00  0.00    +0.000 HD
BRANCH  33  35
ATOM     35  CA  VAL A   5      17.538  17.178   5.604  0.00  0.00    +0.000 C 
BRANCH  35  36
ATOM     36  CB  VAL A   5      16.616  18.173   4.862  0.00  0.00    +0.000 C 
ATOM     37  CG1 VAL A   5      15.190  17.703   4.904  0.00  0.00    +0.000 C 
ATOM     38  CG2 VAL A   5      16.762  19.572   5.457  0.00  0.00    +0.000 C 
ENDBRANCH  35  36
BRANCH  35  39
ATOM     39  C   VAL A   5      18.975  17.561   5.361  0.00  0.00    +0.000 C 
ATOM     40  O   VAL A   5      19.724  17.858   6.294  0.00  0.00    +0.000 OA
BRANCH  39  41
ATOM     41  OXT VAL A   5      19.400  17.594   4.200  0.00  0.00    +0.000 OA
ATOM     42  HXT VAL A   5      18.699  17.338   3.596  0.00  0.00    +0.000 HD
ENDBRANCH  39  41
ENDBRANCH  35  39
ENDBRANCH  33  35
ENDBRANCH  30  31
BRANCH  30  43
ATOM     43  C   UNK A   4      17.783  15.653   9.835  0.00  0.00    +0.000 C 
ATOM     44  C   UNK A   4      17.608  15.865  11.344  0.00  0.00    +0.000 C 
BRANCH  43  45
ATOM     45  O   UNK A   4      17.984  14.281   9.496  0.00  0.00    +0.000 OA
BRANCH  45  46
ATOM     46  P   UNK A   4      19.442  13.699   9.869  0.00  0.00    +0.000 P 
ATOM     47  O   UNK A   4      19.446  13.331  11.300  0.00  0.00    +0.000 OA
BRANCH  46  48
ATOM     48  O   UNK A   4      20.605  14.743   9.516  0.00  0.00    +0.000 OA
ATOM     49  H   UNK A   4      20.569  14.956   8.581  0.00  0.00    +0.000 HD
ENDBRANCH  46  48
BRANCH  46  50
ATOM     50  O   UNK A   4      19.571  12.366   8.993  0.00  0.00    +0.000 OA
ATOM     51  H   UNK A   4      19.569  12.596   8.061  0.00  0.00    +0.000 HD
ENDBRANCH  46  50
ENDBRANCH  45  46
ENDBRANCH  43  45
ENDBRANCH  30  43
ENDBRANCH   3  30
TORSDOF 18
