REMARK  Name = 6k1s_ligand
REMARK  8 active torsions:
REMARK  status: ('A' for Active; 'I' for Inactive)
REMARK    1  A    between atoms: C_3  and  N_8
REMARK    2  A    between atoms: C_6  and  C_7
REMARK    3  A    between atoms: N_12  and  C_13
REMARK    4  A    between atoms: C_15  and  O_16
REMARK    5  A    between atoms: C_17  and  O_18
REMARK    6  A    between atoms: C_19  and  C_20
REMARK    7  A    between atoms: C_20  and  O_21
REMARK    8  A    between atoms: C_20  and  C_22
REMARK                            x       y       z     vdW  Elec       q    Type
REMARK                         _______ _______ _______ _____ _____    ______ ____
ROOT
ATOM      1  C   UNL     1     -16.991-101.285  -3.621  0.00  0.00    +0.000 C 
ATOM      2  O   UNL     1     -17.472-101.261  -4.939  0.00  0.00    +0.000 OA
ATOM      3  C   UNL     1     -17.275 -99.894  -3.139  0.00  0.00    +0.000 C 
ATOM      4  C   UNL     1     -18.678 -99.655  -3.654  0.00  0.00    +0.000 C 
ATOM      5  C   UNL     1     -18.733-100.573  -4.871  0.00  0.00    +0.000 C 
ENDROOT
BRANCH   1  14
ATOM      6  C   UNL     1     -14.915-102.555  -3.260  0.00  0.00    +0.000 A 
ATOM      7  C   UNL     1     -13.614-102.448  -3.554  0.00  0.00    +0.000 A 
ATOM      8  C   UNL     1     -12.773-103.438  -3.167  0.00  0.00    +0.000 A 
ATOM      9  N   UNL     1     -13.205-104.471  -2.428  0.00  0.00    +0.000 NA
ATOM     10  N   UNL     1     -15.393-103.575  -2.542  0.00  0.00    +0.000 NA
ATOM     11  C   UNL     1     -14.551-104.588  -2.093  0.00  0.00    +0.000 A 
ATOM     12  C   UNL     1     -13.466-101.315  -4.263  0.00  0.00    +0.000 A 
ATOM     13  C   UNL     1     -14.651-100.751  -4.403  0.00  0.00    +0.000 A 
ATOM     14  N   UNL     1     -15.547-101.514  -3.769  0.00  0.00    +0.000 N 
BRANCH   8  17
ATOM     15  C   UNL     1     -11.542-102.983  -5.946  0.00  0.00    +0.000 C 
ATOM     16  C   UNL     1     -10.841-103.136  -4.588  0.00  0.00    +0.000 C 
ATOM     17  N   UNL     1     -11.453-103.345  -3.398  0.00  0.00    +0.000 NA
ENDBRANCH   8  17
ENDBRANCH   1  14
BRANCH   3  18
ATOM     18  O   UNL     1     -17.213 -99.805  -1.711  0.00  0.00    +0.000 OA
ATOM     19  H   UNL     1     -17.399 -98.903  -1.439  0.00  0.00    +0.000 HD
ENDBRANCH   3  18
BRANCH   4  20
ATOM     20  O   UNL     1     -19.691-100.041  -2.696  0.00  0.00    +0.000 OA
ATOM     21  H   UNL     1     -20.561 -99.872  -3.066  0.00  0.00    +0.000 HD
ENDBRANCH   4  20
BRANCH   5  22
ATOM     22  C   UNL     1     -18.945 -99.782  -6.184  0.00  0.00    +0.000 C 
BRANCH  22  23
ATOM     23  C   UNL     1     -20.253 -99.207  -6.224  0.00  0.00    +0.000 A 
ATOM     24  C   UNL     1     -21.356-100.077  -6.259  0.00  0.00    +0.000 A 
ATOM     25  C   UNL     1     -22.659 -99.611  -6.299  0.00  0.00    +0.000 A 
ATOM     26  C   UNL     1     -22.891 -98.254  -6.311  0.00  0.00    +0.000 A 
ATOM     27 CL   UNL     1     -24.502 -97.702  -6.366  0.00  0.00    +0.000 Cl
ATOM     28  C   UNL     1     -21.819 -97.359  -6.273  0.00  0.00    +0.000 A 
ATOM     29  C   UNL     1     -20.498 -97.828  -6.236  0.00  0.00    +0.000 A 
ENDBRANCH  22  23
BRANCH  22  30
ATOM     30  O   UNL     1     -17.866 -98.845  -6.367  0.00  0.00    +0.000 OA
ATOM     31  H   UNL     1     -18.002 -98.357  -7.183  0.00  0.00    +0.000 HD
ENDBRANCH  22  30
ENDBRANCH   5  22
TORSDOF 7
