REMARK  Name = 6qr4_ligand
REMARK  5 active torsions:
REMARK  status: ('A' for Active; 'I' for Inactive)
REMARK    1  A    between atoms: C_3  and  N_19
REMARK    2  A    between atoms: C_3  and  C_20
REMARK    3  A    between atoms: C_6  and  N_23
REMARK    4  A    between atoms: C_7  and  C_24
REMARK    5  A    between atoms: C_12  and  C_13
REMARK                            x       y       z     vdW  Elec       q    Type
REMARK                         _______ _______ _______ _____ _____    ______ ____
ROOT
ATOM      1  C   UNL     1     -24.295  18.647 -11.244  0.00  0.00    +0.000 A 
ATOM      2  C   UNL     1     -25.175  22.183 -10.400  0.00  0.00    +0.000 A 
ATOM      3  C   UNL     1     -22.041  19.184 -11.881  0.00  0.00    +0.000 A 
ATOM      4  C   UNL     1     -22.214  20.547 -11.579  0.00  0.00    +0.000 A 
ATOM      5  C   UNL     1     -23.477  20.963 -11.127  0.00  0.00    +0.000 A 
ATOM      6  C   UNL     1     -24.500  20.048 -10.959  0.00  0.00    +0.000 A 
ATOM      7  C   UNL     1     -23.067  18.225 -11.676  0.00  0.00    +0.000 A 
ATOM      8  C   UNL     1     -25.594  20.814 -10.489  0.00  0.00    +0.000 A 
ATOM      9  N   UNL     1     -23.926  22.246 -10.776  0.00  0.00    +0.000 N 
ENDROOT
BRANCH   3  14
ATOM     10  N   UNL     1     -17.767  16.631 -12.892  0.00  0.00    +0.000 N 
ATOM     11  C   UNL     1     -18.752  17.640 -12.635  0.00  0.00    +0.000 C 
ATOM     12  N   UNL     1     -18.469  18.977 -12.556  0.00  0.00    +0.000 NA
ATOM     13  N   UNL     1     -19.612  19.635 -12.313  0.00  0.00    +0.000 NA
ATOM     14  C   UNL     1     -20.624  18.745 -12.266  0.00  0.00    +0.000 C 
ATOM     15  C   UNL     1     -20.107  17.463 -12.417  0.00  0.00    +0.000 C 
ATOM     16  H   UNL     1     -16.791  16.894 -13.028  0.00  0.00    +0.000 HD
ATOM     17  H   UNL     1     -18.042  15.650 -12.939  0.00  0.00    +0.000 HD
BRANCH  15  18
ATOM     18  C   UNL     1     -20.763  16.111 -12.459  0.00  0.00    +0.000 C 
ATOM     19  N   UNL     1     -21.180  15.067 -12.499  0.00  0.00    +0.000 NA
ENDBRANCH  15  18
ENDBRANCH   3  14
BRANCH   9  20
ATOM     20  C   UNL     1     -23.104  23.445 -10.847  0.00  0.00    +0.000 C 
BRANCH  20  24
ATOM     21  C   UNL     1     -21.521  22.897  -8.954  0.00  0.00    +0.000 C 
ATOM     22  C   UNL     1     -21.610  25.639  -8.199  0.00  0.00    +0.000 C 
ATOM     23  C   UNL     1     -21.247  25.434 -10.354  0.00  0.00    +0.000 C 
ATOM     24  C   UNL     1     -22.580  23.869  -9.474  0.00  0.00    +0.000 C 
ATOM     25  C   UNL     1     -21.088  23.233  -7.625  0.00  0.00    +0.000 C 
ATOM     26  C   UNL     1     -20.743  24.615  -7.448  0.00  0.00    +0.000 C 
ATOM     27  N   UNL     1     -22.124  25.230  -9.477  0.00  0.00    +0.000 N 
ATOM     28  H   UNL     1     -22.948  25.790  -9.694  0.00  0.00    +0.000 HD
ENDBRANCH  20  24
ENDBRANCH   9  20
TORSDOF 4
