REMARK  Name = 6h14_ligand
REMARK  7 active torsions:
REMARK  status: ('A' for Active; 'I' for Inactive)
REMARK    1  A    between atoms: C_14  and  N_15
REMARK    2  A    between atoms: N_18  and  C_19
REMARK    3  A    between atoms: C_24  and  C_25
REMARK    4  A    between atoms: N_29  and  C_30
REMARK    5  A    between atoms: C_30  and  C_31
REMARK    6  A    between atoms: C_31  and  N_32
REMARK    7  A    between atoms: N_32  and  C_33
REMARK                            x       y       z     vdW  Elec       q    Type
REMARK                         _______ _______ _______ _____ _____    ______ ____
ROOT
ATOM      1  C   UNL     1      -7.913 217.228  78.108  0.00  0.00    +0.000 A 
ATOM      2  C   UNL     1      -7.559 216.397  79.186  0.00  0.00    +0.000 A 
ATOM      3  N   UNL     1      -7.199 217.148  76.970  0.00  0.00    +0.000 NA
ATOM      4  C   UNL     1      -6.136 216.269  76.814  0.00  0.00    +0.000 A 
ATOM      5  C   UNL     1      -5.775 215.447  77.860  0.00  0.00    +0.000 A 
ATOM      6  C   UNL     1      -6.480 215.504  79.057  0.00  0.00    +0.000 A 
ENDROOT
BRANCH   1  10
ATOM      7  N   UNL     1     -10.507 219.626  78.685  0.00  0.00    +0.000 N 
ATOM      8  C   UNL     1      -9.633 218.654  79.074  0.00  0.00    +0.000 C 
ATOM      9  O   UNL     1      -9.529 218.251  80.233  0.00  0.00    +0.000 OA
ATOM     10  N   UNL     1      -8.897 218.155  78.050  0.00  0.00    +0.000 N 
ATOM     11  H   UNL     1     -10.530 219.863  77.693  0.00  0.00    +0.000 HD
ATOM     12  H   UNL     1      -9.111 218.523  77.123  0.00  0.00    +0.000 HD
BRANCH   7  26
ATOM     13  O   UNL     1     -13.896 224.088  79.357  0.00  0.00    +0.000 OA
ATOM     14  C   UNL     1     -13.128 223.213  78.964  0.00  0.00    +0.000 C 
ATOM     15  N   UNL     1     -12.639 223.156  77.740  0.00  0.00    +0.000 N 
ATOM     16  C   UNL     1     -12.764 224.084  76.599  0.00  0.00    +0.000 C 
ATOM     17  C   UNL     1     -11.370 224.500  76.139  0.00  0.00    +0.000 C 
ATOM     18  C   UNL     1     -10.451 223.278  76.077  0.00  0.00    +0.000 C 
ATOM     19  C   UNL     1     -10.391 222.600  77.449  0.00  0.00    +0.000 C 
ATOM     20  C   UNL     1     -11.755 222.011  77.706  0.00  0.00    +0.000 C 
ATOM     21  C   UNL     1     -11.877 221.422  78.980  0.00  0.00    +0.000 A 
ATOM     22  C   UNL     1     -12.721 222.180  79.703  0.00  0.00    +0.000 A 
ATOM     23  C   UNL     1     -13.040 221.857  80.954  0.00  0.00    +0.000 A 
ATOM     24  C   UNL     1     -12.509 220.724  81.550  0.00  0.00    +0.000 A 
ATOM     25  C   UNL     1     -11.648 219.936  80.809  0.00  0.00    +0.000 A 
ATOM     26  C   UNL     1     -11.344 220.302  79.501  0.00  0.00    +0.000 A 
ENDBRANCH   7  26
ENDBRANCH   1  10
BRANCH   6  27
ATOM     27  C   UNL     1      -6.057 214.668  80.017  0.00  0.00    +0.000 A 
ATOM     28  C   UNL     1      -6.783 214.053  80.944  0.00  0.00    +0.000 A 
ATOM     29  N   UNL     1      -4.783 214.301  80.167  0.00  0.00    +0.000 NA
ATOM     30  N   UNL     1      -4.716 213.525  81.124  0.00  0.00    +0.000 NA
ATOM     31  N   UNL     1      -5.888 213.339  81.630  0.00  0.00    +0.000 N 
BRANCH  31  32
ATOM     32  C   UNL     1      -6.120 212.439  82.782  0.00  0.00    +0.000 C 
BRANCH  32  33
ATOM     33  C   UNL     1      -4.772 211.923  83.262  0.00  0.00    +0.000 C 
BRANCH  33  34
ATOM     34  N   UNL     1      -4.656 210.450  83.261  0.00  0.00    +0.000 N 
ATOM     35  H   UNL     1      -5.222 209.954  83.950  0.00  0.00    +0.000 HD
BRANCH  34  36
ATOM     36  C   UNL     1      -3.888 209.681  82.455  0.00  0.00    +0.000 A 
ATOM     37  C   UNL     1      -2.487 209.826  82.330  0.00  0.00    +0.000 A 
ATOM     38  C   UNL     1      -1.742 210.819  83.012  0.00  0.00    +0.000 C 
ATOM     39  C   UNL     1      -0.269 210.509  83.073  0.00  0.00    +0.000 C 
ATOM     40  C   UNL     1       0.178 210.270  81.647  0.00  0.00    +0.000 C 
ATOM     41  C   UNL     1      -0.452 208.961  81.221  0.00  0.00    +0.000 C 
ATOM     42  C   UNL     1      -1.837 208.941  81.454  0.00  0.00    +0.000 A 
ATOM     43  N   UNL     1      -2.530 207.992  80.804  0.00  0.00    +0.000 NA
ATOM     44  C   UNL     1      -3.854 207.838  80.922  0.00  0.00    +0.000 A 
ATOM     45  C   UNL     1      -4.567 208.681  81.762  0.00  0.00    +0.000 A 
ATOM     46  C   UNL     1      -5.941 208.526  81.897  0.00  0.00    +0.000 A 
ATOM     47  C   UNL     1      -6.600 207.525  81.191  0.00  0.00    +0.000 A 
ATOM     48  C   UNL     1      -5.881 206.680  80.348  0.00  0.00    +0.000 A 
ATOM     49  C   UNL     1      -4.503 206.831  80.214  0.00  0.00    +0.000 A 
ENDBRANCH  34  36
ENDBRANCH  33  34
ENDBRANCH  32  33
ENDBRANCH  31  32
ENDBRANCH   6  27
TORSDOF 7
