REMARK  Name = 6ufn_ligand
REMARK  13 active torsions:
REMARK  status: ('A' for Active; 'I' for Inactive)
REMARK    1  A    between atoms: C_1  and  C_2
REMARK    2  A    between atoms: C_1  and  N_11
REMARK    3  A    between atoms: C_2  and  C_3
REMARK    4  A    between atoms: C_3  and  N_12
REMARK    5  A    between atoms: C_4  and  C_5
REMARK    6  A    between atoms: C_5  and  C_6
REMARK    7  A    between atoms: C_5  and  O_13
REMARK    8  A    between atoms: C_5  and  O_14
REMARK    9  A    between atoms: C_6  and  C_7
REMARK   10  A    between atoms: C_7  and  C_8
REMARK   11  A    between atoms: C_8  and  C_9
REMARK   12  A    between atoms: C_9  and  C_10
REMARK   13  A    between atoms: C_10  and  N_11
REMARK                            x       y       z     vdW  Elec       q    Type
REMARK                         _______ _______ _______ _____ _____    ______ ____
ROOT
ATOM      1  C   UNL     1      25.542  39.673  35.774  0.00  0.00    +0.000 C 
ENDROOT
BRANCH   1   2
ATOM      2  N   UNL     1      26.862  40.352  35.675  0.00  0.00    +0.000 N 
ATOM      3  H   UNL     1      26.678  41.355  35.652  0.00  0.00    +0.000 HD
ATOM      4  H   UNL     1      27.417  40.037  36.470  0.00  0.00    +0.000 HD
BRANCH   2   5
ATOM      5  C   UNL     1      27.641  40.028  34.449  0.00  0.00    +0.000 C 
BRANCH   5   6
ATOM      6  C   UNL     1      28.859  40.966  34.277  0.00  0.00    +0.000 C 
BRANCH   6   7
ATOM      7  C   UNL     1      29.051  41.394  32.797  0.00  0.00    +0.000 C 
BRANCH   7   8
ATOM      8  N   UNL     1      30.437  41.821  32.556  0.00  0.00    +0.000 N 
ATOM      9  H   UNL     1      30.541  42.097  31.580  0.00  0.00    +0.000 HD
ATOM     10  H   UNL     1      30.658  42.613  33.160  0.00  0.00    +0.000 HD
ATOM     11  H   UNL     1      31.070  41.048  32.761  0.00  0.00    +0.000 HD
ENDBRANCH   7   8
ENDBRANCH   6   7
ENDBRANCH   5   6
ENDBRANCH   2   5
ENDBRANCH   1   2
BRANCH   1  12
ATOM     12  C   UNL     1      24.443  40.410  34.965  0.00  0.00    +0.000 C 
BRANCH  12  13
ATOM     13  C   UNL     1      23.021  40.226  35.518  0.00  0.00    +0.000 C 
BRANCH  13  14
ATOM     14  C   UNL     1      21.917  40.392  34.453  0.00  0.00    +0.000 C 
BRANCH  14  15
ATOM     15  C   UNL     1      20.548  40.758  35.041  0.00  0.00    +0.000 C 
BRANCH  15  17
ATOM     16  C   UNL     1      18.016  40.924  34.713  0.00  0.00    +0.000 C 
ATOM     17  C   UNL     1      19.328  40.299  34.217  0.00  0.00    +0.000 C 
BRANCH  17  18
ATOM     18  O   UNL     1      19.269  38.904  34.298  0.00  0.00    +0.000 OA
ATOM     19  H   UNL     1      19.106  38.644  35.208  0.00  0.00    +0.000 HD
ENDBRANCH  17  18
BRANCH  17  20
ATOM     20  O   UNL     1      19.565  40.637  32.887  0.00  0.00    +0.000 OA
ATOM     21  H   UNL     1      19.610  41.592  32.804  0.00  0.00    +0.000 HD
ENDBRANCH  17  20
ENDBRANCH  15  17
ENDBRANCH  14  15
ENDBRANCH  13  14
ENDBRANCH  12  13
ENDBRANCH   1  12
TORSDOF 12
