REMARK  Name = 6ibz_ligand
REMARK  8 active torsions:
REMARK  status: ('A' for Active; 'I' for Inactive)
REMARK    1  A    between atoms: N_3  and  C_4
REMARK    2  A    between atoms: C_10  and  C_11
REMARK    3  A    between atoms: C_20  and  N_21
REMARK    4  A    between atoms: N_21  and  C_22
REMARK    5  A    between atoms: C_27  and  S_28
REMARK    6  A    between atoms: S_28  and  N_31
REMARK    7  A    between atoms: N_31  and  C_32
REMARK    8  A    between atoms: C_32  and  C_33
REMARK                            x       y       z     vdW  Elec       q    Type
REMARK                         _______ _______ _______ _____ _____    ______ ____
ROOT
ATOM      1  C   UNL     1      93.144  49.566 266.659  0.00  0.00    +0.000 A 
ATOM      2  C   UNL     1      91.832  49.282 266.268  0.00  0.00    +0.000 A 
ATOM      3  C   UNL     1      94.133  48.622 266.454  0.00  0.00    +0.000 A 
ATOM      4  N   UNL     1      95.401  48.888 266.848  0.00  0.00    +0.000 NA
ATOM      5  C   UNL     1      96.428  47.965 266.660  0.00  0.00    +0.000 A 
ATOM      6  C   UNL     1      96.109  46.757 266.059  0.00  0.00    +0.000 A 
ATOM      7  N   UNL     1      94.785  46.502 265.671  0.00  0.00    +0.000 NA
ATOM      8  C   UNL     1      93.803  47.402 265.865  0.00  0.00    +0.000 A 
ATOM      9  C   UNL     1      92.486  47.117 265.457  0.00  0.00    +0.000 A 
ATOM     10  C   UNL     1      91.472  48.073 265.651  0.00  0.00    +0.000 A 
ENDROOT
BRANCH   1  20
ATOM     11  C   UNL     1      92.752  51.202 268.401  0.00  0.00    +0.000 A 
ATOM     12  C   UNL     1      93.026  52.370 268.976  0.00  0.00    +0.000 A 
ATOM     13  N   UNL     1      92.515  52.952 270.057  0.00  0.00    +0.000 N 
ATOM     14  C   UNL     1      91.437  52.391 270.893  0.00  0.00    +0.000 C 
ATOM     15  C   UNL     1      93.108  54.129 270.242  0.00  0.00    +0.000 A 
ATOM     16  C   UNL     1      94.005  54.271 269.284  0.00  0.00    +0.000 A 
ATOM     17  C   UNL     1      93.962  53.190 268.493  0.00  0.00    +0.000 A 
ATOM     18  C   UNL     1      94.680  52.861 267.410  0.00  0.00    +0.000 A 
ATOM     19  C   UNL     1      94.436  51.659 266.770  0.00  0.00    +0.000 A 
ATOM     20  C   UNL     1      93.446  50.803 267.266  0.00  0.00    +0.000 A 
ENDBRANCH   1  20
BRANCH  10  21
ATOM     21  N   UNL     1      90.153  47.890 265.355  0.00  0.00    +0.000 N 
ATOM     22  H   UNL     1      89.459  48.302 265.979  0.00  0.00    +0.000 HD
BRANCH  21  23
ATOM     23  C   UNL     1      89.718  47.203 264.297  0.00  0.00    +0.000 A 
ATOM     24  C   UNL     1      90.432  47.171 263.103  0.00  0.00    +0.000 A 
ATOM     25  C   UNL     1      89.952  46.471 262.005  0.00  0.00    +0.000 A 
ATOM     26  C   UNL     1      88.756  45.800 262.103  0.00  0.00    +0.000 A 
ATOM     27  C   UNL     1      88.046  45.837 263.289  0.00  0.00    +0.000 A 
ATOM     28  C   UNL     1      88.499  46.530 264.393  0.00  0.00    +0.000 A 
BRANCH  28  29
ATOM     29  S   UNL     1      87.462  46.436 265.830  0.00  0.00    +0.000 S 
ATOM     30  O   UNL     1      86.025  46.318 265.393  0.00  0.00    +0.000 OA
ATOM     31  O   UNL     1      87.553  47.725 266.620  0.00  0.00    +0.000 OA
BRANCH  29  32
ATOM     32  N   UNL     1      87.919  45.121 266.773  0.00  0.00    +0.000 NA
ATOM     33  H   UNL     1      87.287  44.364 267.033  0.00  0.00    +0.000 HD
BRANCH  32  34
ATOM     34  C   UNL     1      89.347  45.184 267.186  0.00  0.00    +0.000 C 
BRANCH  34  35
ATOM     35  C   UNL     1      89.719  44.236 268.188  0.00  0.00    +0.000 A 
ATOM     36  C   UNL     1      91.054  43.842 268.320  0.00  0.00    +0.000 A 
ATOM     37  N   UNL     1      91.467  42.901 269.297  0.00  0.00    +0.000 NA
ATOM     38  C   UNL     1      90.539  42.332 270.171  0.00  0.00    +0.000 A 
ATOM     39  N   UNL     1      89.195  42.725 270.052  0.00  0.00    +0.000 NA
ATOM     40  C   UNL     1      88.791  43.667 269.074  0.00  0.00    +0.000 A 
ENDBRANCH  34  35
ENDBRANCH  32  34
ENDBRANCH  29  32
ENDBRANCH  28  29
ENDBRANCH  21  23
ENDBRANCH  10  21
TORSDOF 7
