REMARK  Name = 6i66_ligand
REMARK  5 active torsions:
REMARK  status: ('A' for Active; 'I' for Inactive)
REMARK    1  A    between atoms: C_1  and  C_2
REMARK    2  A    between atoms: C_2  and  C_3
REMARK    3  A    between atoms: C_3  and  C_4
REMARK    4  A    between atoms: C_3  and  C_5
REMARK    5  A    between atoms: C_8  and  O_9
REMARK                            x       y       z     vdW  Elec       q    Type
REMARK                         _______ _______ _______ _____ _____    ______ ____
ROOT
ATOM      1  C   UNL     1     -16.666  -4.447 -26.847  0.00  0.00    +0.000 A 
ATOM      2  C   UNL     1     -15.493  -4.936 -27.404  0.00  0.00    +0.000 A 
ATOM      3  C   UNL     1     -15.042  -6.200 -27.069  0.00  0.00    +0.000 A 
ATOM      4  C   UNL     1     -15.758  -6.974 -26.170  0.00  0.00    +0.000 A 
ATOM      5  C   UNL     1     -16.934  -6.488 -25.601  0.00  0.00    +0.000 A 
ATOM      6  C   UNL     1     -17.389  -5.219 -25.938  0.00  0.00    +0.000 A 
ENDROOT
BRANCH   1   7
ATOM      7  C   UNL     1     -17.094  -3.169 -27.169  0.00  0.00    +0.000 C 
ATOM      8  C   UNL     1     -16.475  -2.720 -28.497  0.00  0.00    +0.000 C 
BRANCH   7  10
ATOM      9  C   UNL     1     -16.982  -0.831 -26.263  0.00  0.00    +0.000 C 
ATOM     10  C   UNL     1     -16.571  -2.274 -26.041  0.00  0.00    +0.000 C 
ENDBRANCH   7  10
ENDBRANCH   1   7
BRANCH   4  11
ATOM     11  O   UNL     1     -15.299  -8.213 -25.851  0.00  0.00    +0.000 OA
ATOM     12  H   UNL     1     -15.898  -8.623 -25.222  0.00  0.00    +0.000 HD
ENDBRANCH   4  11
TORSDOF 3
