REMARK  Name = 6rr0_ligand
REMARK  48 active torsions:
REMARK  status: ('A' for Active; 'I' for Inactive)
REMARK    1  A    between atoms: N_1  and  CA_2
REMARK    2  A    between atoms: CA_2  and  C_3
REMARK    3  A    between atoms: CA_2  and  CB_5
REMARK    4  A    between atoms: CB_5  and  CG_6
REMARK    5  A    between atoms: CG_6  and  CD1_7
REMARK    6  A    between atoms: CG_6  and  CD2_8
REMARK    7  A    between atoms: N_9  and  CA_10
REMARK    8  A    between atoms: CA_10  and  C_11
REMARK    9  A    between atoms: CA_10  and  CB_13
REMARK   10  A    between atoms: CB_13  and  OG_14
REMARK   11  A    between atoms: N_15  and  CA_16
REMARK   12  A    between atoms: CA_16  and  C_17
REMARK   13  A    between atoms: CA_16  and  CB_19
REMARK   14  A    between atoms: CB_19  and  OG1_20
REMARK   15  A    between atoms: CB_19  and  CG2_21
REMARK   16  A    between atoms: N_22  and  CA_23
REMARK   17  A    between atoms: CA_23  and  C_24
REMARK   18  A    between atoms: CA_23  and  CB_26
REMARK   19  A    between atoms: CB_26  and  CG_27
REMARK   20  A    between atoms: CG_27  and  CD_28
REMARK   21  A    between atoms: CD_28  and  OE2_30
REMARK   22  A    between atoms: N_31  and  CA_32
REMARK   23  A    between atoms: CA_32  and  C_33
REMARK   24  A    between atoms: CA_32  and  CB_35
REMARK   25  A    between atoms: CB_35  and  CG_36
REMARK   26  A    between atoms: CG_36  and  CD1_37
REMARK   27  A    between atoms: CG_36  and  CD2_38
REMARK   28  A    between atoms: N_39  and  CA_40
REMARK   29  A    between atoms: CA_40  and  C_41
REMARK   30  A    between atoms: CA_40  and  CB_43
REMARK   31  A    between atoms: CB_43  and  OG_44
REMARK   32  A    between atoms: N_45  and  C_46
REMARK   33  A    between atoms: C_46  and  C_47
REMARK   34  A    between atoms: C_46  and  C_54
REMARK   35  A    between atoms: C_47  and  C_48
REMARK   36  A    between atoms: C_47  and  O_49
REMARK   37  A    between atoms: O_49  and  P_50
REMARK   38  A    between atoms: P_50  and  O_51
REMARK   39  A    between atoms: P_50  and  O_52
REMARK   40  A    between atoms: N_56  and  CA_57
REMARK   41  A    between atoms: CA_57  and  C_58
REMARK   42  A    between atoms: CA_57  and  CB_60
REMARK   43  A    between atoms: CB_60  and  CG_61
REMARK   44  A    between atoms: CG_61  and  CD_62
REMARK   45  A    between atoms: CD_62  and  OE2_64
REMARK   46  A    between atoms: CA_66  and  C_67
REMARK   47  A    between atoms: CA_73  and  C_74
REMARK   48  A    between atoms: C_74  and  O_75
REMARK                            x       y       z     vdW  Elec       q    Type
REMARK                         _______ _______ _______ _____ _____    ______ ____
ROOT
ATOM      1  C   LEU A   5      -7.488   1.729   3.554  0.00  0.00    +0.000 C 
ATOM      2  O   LEU A   5      -6.353   2.145   3.745  0.00  0.00    +0.000 OA
ATOM      3  N   SER A   6      -8.295   1.387   4.549  0.00  0.00    +0.000 N 
ATOM      4  H   SER A   6      -9.237   1.069   4.321  0.00  0.00    +0.000 HD
ENDROOT
BRANCH   3   5
ATOM      5  CA  SER A   6      -7.905   1.442   5.952  0.00  0.00    +0.000 C 
BRANCH   5   6
ATOM      6  C   SER A   6      -7.123   0.199   6.366  0.00  0.00    +0.000 C 
ATOM      7  O   SER A   6      -7.415  -0.901   5.903  0.00  0.00    +0.000 OA
ATOM      8  N   UNK A   7      -6.137   0.384   7.254  0.00  0.00    +0.000 N 
ATOM      9  H   UNK A   7      -5.950   1.339   7.559  0.00  0.00    +0.000 HD
BRANCH   8  10
ATOM     10  C   UNK A   7      -5.305  -0.685   7.822  0.00  0.00    +0.000 C 
BRANCH  10  11
ATOM     11  C   UNK A   7      -6.166  -1.547   8.747  0.00  0.00    +0.000 C 
ATOM     12  O   UNK A   7      -5.951  -2.754   8.851  0.00  0.00    +0.000 OA
ATOM     13  N   GLU A   8      -7.140  -0.913   9.415  0.00  0.00    +0.000 N 
ATOM     14  H   GLU A   8      -7.243   0.092   9.278  0.00  0.00    +0.000 HD
BRANCH  13  15
ATOM     15  CA  GLU A   8      -8.061  -1.582  10.327  0.00  0.00    +0.000 C 
BRANCH  15  16
ATOM     16  C   GLU A   8      -9.315  -2.022   9.582  0.00  0.00    +0.000 C 
ATOM     17  O   GLU A   8      -9.832  -1.235   8.788  0.00  0.00    +0.000 OA
ATOM     18  N   PRO A   9      -9.804  -3.273   9.794  0.00  0.00    +0.000 N 
ATOM     19  CA  PRO A   9     -11.014  -3.735   9.078  0.00  0.00    +0.000 C 
ATOM     20  CB  PRO A   9     -11.117  -5.212   9.471  0.00  0.00    +0.000 C 
ATOM     21  CG  PRO A   9     -10.399  -5.315  10.755  0.00  0.00    +0.000 C 
ATOM     22  CD  PRO A   9      -9.278  -4.324  10.688  0.00  0.00    +0.000 C 
BRANCH  19  23
ATOM     23  C   PRO A   9     -12.294  -2.967   9.425  0.00  0.00    +0.000 C 
ATOM     24  O   PRO A   9     -12.330  -2.316  10.473  0.00  0.00    +0.000 OA
ATOM     25  N   PRO A  10     -13.354  -3.014   8.573  0.00  0.00    +0.000 N 
ATOM     26  CA  PRO A  10     -14.597  -2.283   8.903  0.00  0.00    +0.000 C 
ATOM     27  CB  PRO A  10     -15.477  -2.480   7.659  0.00  0.00    +0.000 C 
ATOM     28  CG  PRO A  10     -14.587  -3.020   6.603  0.00  0.00    +0.000 C 
ATOM     29  CD  PRO A  10     -13.498  -3.753   7.303  0.00  0.00    +0.000 C 
BRANCH  26  30
ATOM     30  C   PRO A  10     -15.298  -2.786  10.163  0.00  0.00    +0.000 C 
ATOM     31  OXT PRO A  10     -16.027  -2.036  10.804  0.00  0.00    +0.000 OA
BRANCH  30  32
ATOM     32  O   PRO A  10     -15.135  -3.942  10.540  0.00  0.00    +0.000 OA
ATOM     33  H   PRO A  10     -14.542  -4.394   9.935  0.00  0.00    +0.000 HD
ENDBRANCH  30  32
ENDBRANCH  26  30
ENDBRANCH  19  23
ENDBRANCH  15  16
BRANCH  15  34
ATOM     34  CB  GLU A   8      -8.407  -0.689  11.544  0.00  0.00    +0.000 C 
BRANCH  34  35
ATOM     35  CG  GLU A   8      -7.208  -0.173  12.335  0.00  0.00    +0.000 C 
BRANCH  35  36
ATOM     36  CD  GLU A   8      -6.179  -1.189  12.810  0.00  0.00    +0.000 C 
ATOM     37  OE1 GLU A   8      -6.594  -2.240  13.357  0.00  0.00    +0.000 OA
BRANCH  36  38
ATOM     38  OE2 GLU A   8      -4.959  -0.918  12.663  0.00  0.00    +0.000 OA
ATOM     39  HE2 GLU A   8      -4.872  -0.069  12.223  0.00  0.00    +0.000 HD
ENDBRANCH  36  38
ENDBRANCH  35  36
ENDBRANCH  34  35
ENDBRANCH  15  34
ENDBRANCH  13  15
ENDBRANCH  10  11
BRANCH  10  40
ATOM     40  C   UNK A   7      -4.139  -0.046   8.641  0.00  0.00    +0.000 C 
ATOM     41  C   UNK A   7      -3.097  -1.086   9.160  0.00  0.00    +0.000 C 
BRANCH  40  42
ATOM     42  O   UNK A   7      -3.422   0.909   7.798  0.00  0.00    +0.000 OA
BRANCH  42  43
ATOM     43  P   UNK A   7      -3.505   2.433   8.138  0.00  0.00    +0.000 P 
ATOM     44  O   UNK A   7      -3.392   2.732   9.586  0.00  0.00    +0.000 OA
BRANCH  43  45
ATOM     45  O   UNK A   7      -4.853   2.958   7.738  0.00  0.00    +0.000 OA
ATOM     46  H   UNK A   7      -4.994   2.796   6.802  0.00  0.00    +0.000 HD
ENDBRANCH  43  45
BRANCH  43  47
ATOM     47  O   UNK A   7      -2.375   3.077   7.339  0.00  0.00    +0.000 OA
ATOM     48  H   UNK A   7      -2.480   2.863   6.409  0.00  0.00    +0.000 HD
ENDBRANCH  43  47
ENDBRANCH  42  43
ENDBRANCH  40  42
ENDBRANCH  10  40
ENDBRANCH   8  10
ENDBRANCH   5   6
BRANCH   5  49
ATOM     49  CB  SER A   6      -9.138   1.626   6.840  0.00  0.00    +0.000 C 
BRANCH  49  50
ATOM     50  OG  SER A   6      -8.804   1.750   8.213  0.00  0.00    +0.000 OA
ATOM     51  H   SER A   6      -9.607   1.863   8.727  0.00  0.00    +0.000 HD
ENDBRANCH  49  50
ENDBRANCH   5  49
ENDBRANCH   3   5
BRANCH   1  52
ATOM     52  CA  LEU A   5      -8.079   1.665   2.139  0.00  0.00    +0.000 C 
BRANCH  52  55
ATOM     53  C   GLU A   4      -8.803   3.986   1.773  0.00  0.00    +0.000 C 
ATOM     54  O   GLU A   4      -9.667   3.913   2.655  0.00  0.00    +0.000 OA
ATOM     55  N   LEU A   5      -7.985   2.964   1.468  0.00  0.00    +0.000 N 
ATOM     56  H   LEU A   5      -7.276   3.097   0.747  0.00  0.00    +0.000 HD
BRANCH  53  57
ATOM     57  CA  GLU A   4      -8.645   5.309   0.996  0.00  0.00    +0.000 C 
BRANCH  57  60
ATOM     58  C   THR A   3      -6.403   6.053   1.677  0.00  0.00    +0.000 C 
ATOM     59  O   THR A   3      -6.710   6.062   2.876  0.00  0.00    +0.000 OA
ATOM     60  N   GLU A   4      -7.257   5.668   0.704  0.00  0.00    +0.000 N 
ATOM     61  H   GLU A   4      -6.926   5.626  -0.260  0.00  0.00    +0.000 HD
BRANCH  58  62
ATOM     62  CA  THR A   3      -4.976   6.477   1.260  0.00  0.00    +0.000 C 
BRANCH  62  65
ATOM     63  C   SER A   2      -4.261   5.190  -0.734  0.00  0.00    +0.000 C 
ATOM     64  O   SER A   2      -4.017   4.160  -0.102  0.00  0.00    +0.000 OA
ATOM     65  N   THR A   3      -4.728   6.312  -0.173  0.00  0.00    +0.000 N 
ATOM     66  H   THR A   3      -4.924   7.104  -0.785  0.00  0.00    +0.000 HD
BRANCH  63  67
ATOM     67  CA  SER A   2      -4.034   5.237  -2.239  0.00  0.00    +0.000 C 
BRANCH  67  70
ATOM     68  C   LEU A   1      -1.595   4.620  -2.230  0.00  0.00    +0.000 C 
ATOM     69  O   LEU A   1      -1.264   5.495  -1.424  0.00  0.00    +0.000 OA
ATOM     70  N   SER A   2      -2.879   4.435  -2.657  0.00  0.00    +0.000 N 
ATOM     71  H   SER A   2      -3.049   3.678  -3.320  0.00  0.00    +0.000 HD
BRANCH  68  72
ATOM     72  CA  LEU A   1      -0.523   3.663  -2.801  0.00  0.00    +0.000 C 
BRANCH  72  73
ATOM     73  N   LEU A   1       0.732   4.355  -3.094  0.00  0.00    +0.000 N 
ATOM     74  H1  LEU A   1       0.547   5.144  -3.713  0.00  0.00    +0.000 HD
ATOM     75  H2  LEU A   1       1.144   4.693  -2.224  0.00  0.00    +0.000 HD
ATOM     76  H3  LEU A   1       1.377   3.709  -3.549  0.00  0.00    +0.000 HD
ENDBRANCH  72  73
BRANCH  72  77
ATOM     77  CB  LEU A   1      -0.255   2.464  -1.863  0.00  0.00    +0.000 C 
BRANCH  77  78
ATOM     78  CG  LEU A   1      -1.441   1.803  -1.140  0.00  0.00    +0.000 C 
ATOM     79  CD1 LEU A   1      -2.175   0.802  -2.034  0.00  0.00    +0.000 C 
ATOM     80  CD2 LEU A   1      -0.985   1.172   0.144  0.00  0.00    +0.000 C 
ENDBRANCH  77  78
ENDBRANCH  72  77
ENDBRANCH  68  72
ENDBRANCH  67  70
BRANCH  67  81
ATOM     81  CB  SER A   2      -5.302   4.831  -2.992  0.00  0.00    +0.000 C 
BRANCH  81  82
ATOM     82  OG  SER A   2      -5.974   3.726  -2.409  0.00  0.00    +0.000 OA
ATOM     83  H   SER A   2      -6.757   3.521  -2.925  0.00  0.00    +0.000 HD
ENDBRANCH  81  82
ENDBRANCH  67  81
ENDBRANCH  63  67
ENDBRANCH  62  65
BRANCH  62  84
ATOM     84  CB  THR A   3      -4.622   7.923   1.690  0.00  0.00    +0.000 C 
ATOM     85  CG2 THR A   3      -5.560   8.986   1.083  0.00  0.00    +0.000 C 
BRANCH  84  86
ATOM     86  OG1 THR A   3      -4.613   8.002   3.119  0.00  0.00    +0.000 OA
ATOM     87  HG1 THR A   3      -4.394   8.897   3.388  0.00  0.00    +0.000 HD
ENDBRANCH  84  86
ENDBRANCH  62  84
ENDBRANCH  58  62
ENDBRANCH  57  60
BRANCH  57  88
ATOM     88  CB  GLU A   4      -9.539   5.331  -0.271  0.00  0.00    +0.000 C 
BRANCH  88  89
ATOM     89  CG  GLU A   4      -9.258   4.272  -1.332  0.00  0.00    +0.000 C 
BRANCH  89  90
ATOM     90  CD  GLU A   4     -10.134   4.402  -2.568  0.00  0.00    +0.000 C 
ATOM     91  OE1 GLU A   4     -10.245   5.535  -3.088  0.00  0.00    +0.000 OA
BRANCH  90  92
ATOM     92  OE2 GLU A   4     -10.701   3.382  -3.026  0.00  0.00    +0.000 OA
ATOM     93  HE2 GLU A   4     -10.483   2.624  -2.479  0.00  0.00    +0.000 HD
ENDBRANCH  90  92
ENDBRANCH  89  90
ENDBRANCH  88  89
ENDBRANCH  57  88
ENDBRANCH  53  57
ENDBRANCH  52  55
BRANCH  52  94
ATOM     94  CB  LEU A   5      -7.441   0.563   1.275  0.00  0.00    +0.000 C 
BRANCH  94  95
ATOM     95  CG  LEU A   5      -8.028  -0.848   1.343  0.00  0.00    +0.000 C 
ATOM     96  CD1 LEU A   5      -9.509  -0.872   0.971  0.00  0.00    +0.000 C 
ATOM     97  CD2 LEU A   5      -7.299  -1.769   0.385  0.00  0.00    +0.000 C 
ENDBRANCH  94  95
ENDBRANCH  52  94
ENDBRANCH   1  52
TORSDOF 42
