REMARK  Name = 6nsv_ligand
REMARK  22 active torsions:
REMARK  status: ('A' for Active; 'I' for Inactive)
REMARK    1  A    between atoms: C_1  and  C_3
REMARK    2  A    between atoms: N_4  and  CA_5
REMARK    3  A    between atoms: CA_5  and  C_6
REMARK    4  A    between atoms: CA_5  and  CB_8
REMARK    5  A    between atoms: CB_8  and  CG_9
REMARK    6  A    between atoms: CG_9  and  CD1_10
REMARK    7  A    between atoms: CG_9  and  CD2_11
REMARK    8  A    between atoms: N_12  and  CA_13
REMARK    9  A    between atoms: CA_13  and  C_14
REMARK   10  A    between atoms: CA_13  and  CB_16
REMARK   11  A    between atoms: CB_16  and  CG_17
REMARK   12  A    between atoms: N_26  and  CA_27
REMARK   13  A    between atoms: CA_27  and  C_28
REMARK   14  A    between atoms: CA_27  and  CB_30
REMARK   15  A    between atoms: CB_30  and  CG_31
REMARK   16  A    between atoms: CA_41  and  C_42
REMARK   17  A    between atoms: N_47  and  CA_48
REMARK   18  A    between atoms: CA_48  and  C_49
REMARK   19  A    between atoms: CA_48  and  CB_51
REMARK   20  A    between atoms: C_49  and  OXT_55
REMARK   21  A    between atoms: CB_51  and  CG_52
REMARK   22  A    between atoms: CG_52  and  OD1_53
REMARK                            x       y       z     vdW  Elec       q    Type
REMARK                         _______ _______ _______ _____ _____    ______ ____
ROOT
ATOM      1  CA  TRP A   3      -8.136   6.777   3.940  0.00  0.00    +0.000 C 
ENDROOT
BRANCH   1   2
ATOM      2  C   TRP A   3      -7.878   7.080   5.404  0.00  0.00    +0.000 C 
ATOM      3  O   TRP A   3      -6.760   7.449   5.777  0.00  0.00    +0.000 OA
ATOM      4  N   PRO A   4      -8.898   6.970   6.248  0.00  0.00    +0.000 N 
ATOM      5  CA  PRO A   4      -8.680   7.202   7.672  0.00  0.00    +0.000 C 
ATOM      6  CB  PRO A   4     -10.097   7.164   8.265  0.00  0.00    +0.000 C 
ATOM      7  CG  PRO A   4     -10.888   6.387   7.313  0.00  0.00    +0.000 C 
ATOM      8  CD  PRO A   4     -10.321   6.702   5.959  0.00  0.00    +0.000 C 
BRANCH   5   9
ATOM      9  C   PRO A   4      -7.798   6.120   8.278  0.00  0.00    +0.000 C 
ATOM     10  O   PRO A   4      -7.655   5.022   7.738  0.00  0.00    +0.000 OA
ATOM     11  N   ASP A   5      -7.203   6.452   9.429  0.00  0.00    +0.000 N 
ATOM     12  H   ASP A   5      -7.288   7.410   9.770  0.00  0.00    +0.000 HD
BRANCH  11  13
ATOM     13  CA  ASP A   5      -6.433   5.484  10.216  0.00  0.00    +0.000 C 
BRANCH  13  14
ATOM     14  C   ASP A   5      -7.260   4.939  11.379  0.00  0.00    +0.000 C 
ATOM     15  O   ASP A   5      -6.823   4.015  12.052  0.00  0.00    +0.000 OA
BRANCH  14  16
ATOM     16  OXT ASP A   5      -8.362   5.401  11.700  0.00  0.00    +0.000 OA
ATOM     17  HXT ASP A   5      -8.595   6.115  11.102  0.00  0.00    +0.000 HD
ENDBRANCH  14  16
ENDBRANCH  13  14
BRANCH  13  18
ATOM     18  CB  ASP A   5      -5.186   6.138  10.806  0.00  0.00    +0.000 C 
BRANCH  18  19
ATOM     19  CG  ASP A   5      -4.279   6.716   9.762  0.00  0.00    +0.000 C 
ATOM     20  OD2 ASP A   5      -3.836   7.865   9.954  0.00  0.00    +0.000 OA
BRANCH  19  21
ATOM     21  OD1 ASP A   5      -4.026   6.031   8.742  0.00  0.00    +0.000 OA
ATOM     22  HD1 ASP A   5      -4.472   5.183   8.809  0.00  0.00    +0.000 HD
ENDBRANCH  19  21
ENDBRANCH  18  19
ENDBRANCH  13  18
ENDBRANCH  11  13
ENDBRANCH   5   9
ENDBRANCH   1   2
BRANCH   1  25
ATOM     23  C   TRP A   2      -7.549   8.225   2.102  0.00  0.00    +0.000 C 
ATOM     24  O   TRP A   2      -8.734   8.343   1.779  0.00  0.00    +0.000 OA
ATOM     25  N   TRP A   3      -7.180   7.516   3.149  0.00  0.00    +0.000 N 
ATOM     26  H   TRP A   3      -6.194   7.488   3.408  0.00  0.00    +0.000 HD
BRANCH  23  27
ATOM     27  CA  TRP A   2      -6.449   8.949   1.334  0.00  0.00    +0.000 C 
BRANCH  27  30
ATOM     28  C   LEU A   1      -4.335   8.654   2.408  0.00  0.00    +0.000 C 
ATOM     29  O   LEU A   1      -4.632   9.476   3.210  0.00  0.00    +0.000 OA
ATOM     30  N   TRP A   2      -5.136   8.350   1.542  0.00  0.00    +0.000 N 
ATOM     31  H   TRP A   2      -4.862   7.605   0.901  0.00  0.00    +0.000 HD
BRANCH  28  32
ATOM     32  CA  LEU A   1      -2.931   8.104   2.408  0.00  0.00    +0.000 C 
BRANCH  32  36
ATOM     33  C   UNK A   0      -3.525   5.815   2.810  0.00  0.00    +0.000 C 
ATOM     34  O   UNK A   0      -4.068   6.114   3.830  0.00  0.00    +0.000 OA
ATOM     35  C   UNK A   0      -3.293   4.373   2.494  0.00  0.00    +0.000 C 
ATOM     36  N   LEU A   1      -2.942   6.711   2.060  0.00  0.00    +0.000 N 
ATOM     37  H   LEU A   1      -2.480   6.412   1.201  0.00  0.00    +0.000 HD
ENDBRANCH  32  36
BRANCH  32  38
ATOM     38  CB  LEU A   1      -2.114   8.961   1.426  0.00  0.00    +0.000 C 
BRANCH  38  39
ATOM     39  CG  LEU A   1      -0.762   9.582   1.711  0.00  0.00    +0.000 C 
ATOM     40  CD1 LEU A   1      -0.422  10.605   0.626  0.00  0.00    +0.000 C 
ATOM     41  CD2 LEU A   1      -0.640  10.262   3.048  0.00  0.00    +0.000 C 
ENDBRANCH  38  39
ENDBRANCH  32  38
ENDBRANCH  28  32
ENDBRANCH  27  30
BRANCH  27  42
ATOM     42  CB  TRP A   2      -6.736   9.018  -0.169  0.00  0.00    +0.000 C 
BRANCH  42  43
ATOM     43  CG  TRP A   2      -5.924  10.077  -0.892  0.00  0.00    +0.000 C 
ATOM     44  CD1 TRP A   2      -4.828   9.890  -1.695  0.00  0.00    +0.000 C 
ATOM     45  CD2 TRP A   2      -6.160  11.489  -0.870  0.00  0.00    +0.000 C 
ATOM     46  NE1 TRP A   2      -4.380  11.099  -2.176  0.00  0.00    +0.000 NA
ATOM     47  CE2 TRP A   2      -5.180  12.094  -1.683  0.00  0.00    +0.000 C 
ATOM     48  CE3 TRP A   2      -7.107  12.299  -0.248  0.00  0.00    +0.000 C 
ATOM     49  CZ2 TRP A   2      -5.127  13.468  -1.891  0.00  0.00    +0.000 C 
ATOM     50  CZ3 TRP A   2      -7.053  13.666  -0.461  0.00  0.00    +0.000 C 
ATOM     51  CH2 TRP A   2      -6.078  14.233  -1.270  0.00  0.00    +0.000 C 
ENDBRANCH  42  43
ENDBRANCH  27  42
ENDBRANCH  23  27
ENDBRANCH   1  25
BRANCH   1  52
ATOM     52  CB  TRP A   3      -7.965   5.278   3.694  0.00  0.00    +0.000 C 
BRANCH  52  53
ATOM     53  CG  TRP A   3      -8.352   4.867   2.331  0.00  0.00    +0.000 C 
ATOM     54  CD1 TRP A   3      -7.518   4.648   1.281  0.00  0.00    +0.000 C 
ATOM     55  CD2 TRP A   3      -9.680   4.639   1.851  0.00  0.00    +0.000 C 
ATOM     56  NE1 TRP A   3      -8.242   4.291   0.169  0.00  0.00    +0.000 NA
ATOM     57  CE2 TRP A   3      -9.573   4.276   0.492  0.00  0.00    +0.000 C 
ATOM     58  CE3 TRP A   3     -10.947   4.701   2.435  0.00  0.00    +0.000 C 
ATOM     59  CZ2 TRP A   3     -10.685   3.978  -0.289  0.00  0.00    +0.000 C 
ATOM     60  CZ3 TRP A   3     -12.051   4.407   1.656  0.00  0.00    +0.000 C 
ATOM     61  CH2 TRP A   3     -11.913   4.048   0.309  0.00  0.00    +0.000 C 
ENDBRANCH  52  53
ENDBRANCH   1  52
TORSDOF 19
