REMARK  Name = 6tel_ligand
REMARK  9 active torsions:
REMARK  status: ('A' for Active; 'I' for Inactive)
REMARK    1  A    between atoms: C_1  and  N_31
REMARK    2  A    between atoms: C_8  and  S_26
REMARK    3  A    between atoms: C_9  and  C_10
REMARK    4  A    between atoms: C_9  and  C_16
REMARK    5  A    between atoms: C_9  and  N_31
REMARK    6  A    between atoms: C_22  and  S_26
REMARK    7  A    between atoms: C_24  and  N_25
REMARK    8  A    between atoms: C_40  and  O_42
REMARK    9  A    between atoms: O_42  and  C_43
REMARK                            x       y       z     vdW  Elec       q    Type
REMARK                         _______ _______ _______ _____ _____    ______ ____
ROOT
ATOM      1  C   UNL     1      31.630 -10.402  10.816  0.00  0.00    +0.000 A 
ATOM      2  C   UNL     1      31.399 -10.848   9.500  0.00  0.00    +0.000 A 
ATOM      3  C   UNL     1      30.220 -11.539   9.216  0.00  0.00    +0.000 A 
ATOM      4  C   UNL     1      29.226 -11.697  10.195  0.00  0.00    +0.000 A 
ATOM      5  C   UNL     1      29.432 -11.206  11.491  0.00  0.00    +0.000 A 
ATOM      6  C   UNL     1      30.653 -10.566  11.810  0.00  0.00    +0.000 A 
ENDROOT
BRANCH   6  11
ATOM      7  C   UNL     1      31.350  -8.558  17.808  0.00  0.00    +0.000 C 
ATOM      8  C   UNL     1      32.810  -8.771  18.336  0.00  0.00    +0.000 C 
ATOM      9  C   UNL     1      32.002 -10.814  19.680  0.00  0.00    +0.000 C 
ATOM     10  C   UNL     1      30.585 -10.563  19.071  0.00  0.00    +0.000 C 
ATOM     11  N   UNL     1      30.881 -10.038  13.054  0.00  0.00    +0.000 N 
ATOM     12  C   UNL     1      30.527 -10.633  14.225  0.00  0.00    +0.000 A 
ATOM     13  N   UNL     1      30.792 -10.010  15.390  0.00  0.00    +0.000 NA
ATOM     14  C   UNL     1      30.427 -10.539  16.579  0.00  0.00    +0.000 A 
ATOM     15  N   UNL     1      29.826 -11.769  16.554  0.00  0.00    +0.000 NA
ATOM     16  C   UNL     1      29.532 -12.415  15.400  0.00  0.00    +0.000 A 
ATOM     17  N   UNL     1      29.917 -11.842  14.247  0.00  0.00    +0.000 NA
ATOM     18  N   UNL     1      30.742  -9.897  17.751  0.00  0.00    +0.000 N 
ATOM     19  N   UNL     1      32.914  -9.630  19.564  0.00  0.00    +0.000 N 
ATOM     20  H   UNL     1      31.350  -9.134  13.105  0.00  0.00    +0.000 HD
ATOM     21  H   UNL     1      32.662  -9.020  20.341  0.00  0.00    +0.000 HD
ATOM     22  H   UNL     1      33.857 -10.018  19.541  0.00  0.00    +0.000 HD
BRANCH  16  23
ATOM     23  O   UNL     1      28.923 -13.682  15.437  0.00  0.00    +0.000 OA
ATOM     24  C   UNL     1      28.362 -14.225  14.218  0.00  0.00    +0.000 C 
ENDBRANCH  16  23
ENDBRANCH   6  11
BRANCH   4  26
ATOM     25  C   UNL     1      26.684 -11.183   9.212  0.00  0.00    +0.000 C 
ATOM     26  S   UNL     1      27.719 -12.551   9.801  0.00  0.00    +0.000 S 
ATOM     27  O   UNL     1      27.161 -13.086  11.004  0.00  0.00    +0.000 OA
ATOM     28  O   UNL     1      28.049 -13.439   8.717  0.00  0.00    +0.000 OA
ENDBRANCH   4  26
BRANCH   1  29
ATOM     29  N   UNL     1      32.783  -9.820  11.178  0.00  0.00    +0.000 N 
ATOM     30  H   UNL     1      32.905  -9.552  12.155  0.00  0.00    +0.000 HD
BRANCH  29  31
ATOM     31  C   UNL     1      33.864  -9.553  10.249  0.00  0.00    +0.000 C 
BRANCH  31  32
ATOM     32  C   UNL     1      33.644  -8.298   9.373  0.00  0.00    +0.000 A 
ATOM     33  C   UNL     1      33.853  -8.354   7.986  0.00  0.00    +0.000 A 
ATOM     34  C   UNL     1      33.645  -7.278   7.153  0.00  0.00    +0.000 A 
ATOM     35  C   UNL     1      33.251  -6.014   7.636  0.00  0.00    +0.000 A 
ATOM     36  C   UNL     1      33.027  -5.922   9.017  0.00  0.00    +0.000 A 
ATOM     37  C   UNL     1      33.172  -7.060   9.850  0.00  0.00    +0.000 A 
ATOM     38  C   UNL     1      34.459  -8.916   5.971  0.00  0.00    +0.000 C 
ATOM     39  O   UNL     1      34.222  -9.480   7.284  0.00  0.00    +0.000 OA
ATOM     40  O   UNL     1      33.998  -7.540   5.838  0.00  0.00    +0.000 OA
ATOM     41  F   UNL     1      35.732  -9.051   5.609  0.00  0.00    +0.000 F 
ATOM     42  F   UNL     1      33.802  -9.678   5.079  0.00  0.00    +0.000 F 
ENDBRANCH  31  32
BRANCH  31  43
ATOM     43  C   UNL     1      35.157  -9.302  11.036  0.00  0.00    +0.000 A 
ATOM     44  C   UNL     1      36.428  -9.730  10.559  0.00  0.00    +0.000 A 
ATOM     45  C   UNL     1      37.595  -9.430  11.272  0.00  0.00    +0.000 A 
ATOM     46  C   UNL     1      37.490  -8.649  12.436  0.00  0.00    +0.000 A 
ATOM     47  C   UNL     1      36.212  -8.234  12.873  0.00  0.00    +0.000 A 
ATOM     48  N   UNL     1      35.096  -8.572  12.182  0.00  0.00    +0.000 NA
ATOM     49 CL   UNL     1      36.560 -10.664   9.094  0.00  0.00    +0.000 Cl
ENDBRANCH  31  43
ENDBRANCH  29  31
ENDBRANCH   1  29
TORSDOF 7
