REMARK  Name = 6pyb_ligand
REMARK  10 active torsions:
REMARK  status: ('A' for Active; 'I' for Inactive)
REMARK    1  A    between atoms: C_1  and  C_2
REMARK    2  A    between atoms: C_2  and  C_3
REMARK    3  A    between atoms: C_6  and  C_12
REMARK    4  A    between atoms: C_6  and  C_20
REMARK    5  A    between atoms: C_8  and  O_24
REMARK    6  A    between atoms: C_10  and  O_25
REMARK    7  A    between atoms: C_11  and  O_21
REMARK    8  A    between atoms: C_14  and  O_23
REMARK    9  A    between atoms: C_15  and  O_24
REMARK   10  A    between atoms: C_18  and  O_21
REMARK                            x       y       z     vdW  Elec       q    Type
REMARK                         _______ _______ _______ _____ _____    ______ ____
ROOT
ATOM      1  C   UNL     1      14.679  30.321  -4.380  0.00  0.00    +0.000 C 
ATOM      2  C   UNL     1      15.306  29.114  -5.090  0.00  0.00    +0.000 C 
ATOM      3  C   UNL     1      13.347  28.442  -3.948  0.00  0.00    +0.000 C 
ATOM      4  C   UNL     1      13.212  29.895  -4.428  0.00  0.00    +0.000 C 
ATOM      5  O   UNL     1      14.633  27.964  -4.483  0.00  0.00    +0.000 OA
ENDROOT
BRANCH   1   6
ATOM      6  C   UNL     1      15.256  30.432  -2.952  0.00  0.00    +0.000 C 
BRANCH   6   7
ATOM      7  C   UNL     1      14.748  31.541  -2.255  0.00  0.00    +0.000 A 
ATOM      8  C   UNL     1      13.745  33.691  -0.801  0.00  0.00    +0.000 A 
ATOM      9  C   UNL     1      14.591  31.446  -0.876  0.00  0.00    +0.000 A 
ATOM     10  C   UNL     1      14.088  32.517  -0.146  0.00  0.00    +0.000 A 
ATOM     11  C   UNL     1      13.899  33.800  -2.171  0.00  0.00    +0.000 A 
ATOM     12  C   UNL     1      14.402  32.729  -2.900  0.00  0.00    +0.000 A 
BRANCH  11  14
ATOM     13  C   UNL     1      13.499  34.981  -4.142  0.00  0.00    +0.000 C 
ATOM     14  O   UNL     1      13.532  34.996  -2.715  0.00  0.00    +0.000 OA
ENDBRANCH  11  14
BRANCH   8  15
ATOM     15  O   UNL     1      13.249  34.779  -0.154  0.00  0.00    +0.000 OA
ATOM     16  H   UNL     1      13.080  35.478  -0.790  0.00  0.00    +0.000 HD
ENDBRANCH   8  15
ENDBRANCH   6   7
ENDBRANCH   1   6
BRANCH   4  17
ATOM     17  C   UNL     1      12.592  29.933  -5.843  0.00  0.00    +0.000 C 
BRANCH  17  21
ATOM     18  C   UNL     1      10.315  32.838  -5.916  0.00  0.00    +0.000 A 
ATOM     19  C   UNL     1      12.414  33.462  -6.927  0.00  0.00    +0.000 A 
ATOM     20  C   UNL     1      12.915  32.180  -6.704  0.00  0.00    +0.000 A 
ATOM     21  C   UNL     1      12.108  31.226  -6.083  0.00  0.00    +0.000 A 
ATOM     22  C   UNL     1      10.813  31.560  -5.695  0.00  0.00    +0.000 A 
ATOM     23  C   UNL     1      11.125  33.783  -6.528  0.00  0.00    +0.000 A 
BRANCH  19  25
ATOM     24  C   UNL     1      14.485  34.170  -7.770  0.00  0.00    +0.000 C 
ATOM     25  O   UNL     1      13.112  34.478  -7.515  0.00  0.00    +0.000 OA
ENDBRANCH  19  25
BRANCH  23  26
ATOM     26  O   UNL     1      10.707  35.055  -6.777  0.00  0.00    +0.000 OA
ATOM     27  H   UNL     1      11.414  35.545  -7.204  0.00  0.00    +0.000 HD
ENDBRANCH  23  26
ENDBRANCH  17  21
ENDBRANCH   4  17
TORSDOF 8
