REMARK  Name = 6p8y_ligand
REMARK  8 active torsions:
REMARK  status: ('A' for Active; 'I' for Inactive)
REMARK    1  A    between atoms: C_1  and  C_2
REMARK    2  A    between atoms: C_2  and  C_3
REMARK    3  A    between atoms: C_7  and  N_9
REMARK    4  A    between atoms: C_10  and  C_12
REMARK    5  A    between atoms: C_12  and  N_13
REMARK    6  A    between atoms: C_15  and  C_16
REMARK    7  A    between atoms: C_22  and  O_23
REMARK    8  A    between atoms: O_23  and  C_24
REMARK                            x       y       z     vdW  Elec       q    Type
REMARK                         _______ _______ _______ _____ _____    ______ ____
ROOT
ATOM      1  N   UNL     1      -9.612  -7.484  -3.350  0.00  0.00    +0.000 N 
ATOM      2  C   UNL     1     -10.412  -6.434  -3.255  0.00  0.00    +0.000 A 
ATOM      3  C   UNL     1     -10.330  -5.922  -1.958  0.00  0.00    +0.000 A 
ATOM      4  C   UNL     1      -9.416  -6.765  -1.255  0.00  0.00    +0.000 A 
ATOM      5  C   UNL     1      -8.909  -6.790   0.067  0.00  0.00    +0.000 A 
ATOM      6  C   UNL     1      -7.989  -7.777   0.450  0.00  0.00    +0.000 A 
ATOM      7 BR   UNL     1      -7.304  -7.807   2.265  0.00  0.00    +0.000 Br
ATOM      8  C   UNL     1      -7.559  -8.745  -0.470  0.00  0.00    +0.000 A 
ATOM      9  C   UNL     1      -8.053  -8.723  -1.772  0.00  0.00    +0.000 A 
ATOM     10  C   UNL     1      -8.990  -7.720  -2.162  0.00  0.00    +0.000 A 
ENDROOT
BRANCH   3  11
ATOM     11  C   UNL     1     -11.117  -4.698  -1.414  0.00  0.00    +0.000 C 
ATOM     12  O   UNL     1     -11.323  -4.618  -0.247  0.00  0.00    +0.000 OA
ATOM     13  N   UNL     1     -11.630  -3.659  -2.309  0.00  0.00    +0.000 N 
ATOM     14  C   UNL     1     -11.402  -3.723  -3.773  0.00  0.00    +0.000 C 
ATOM     15  C   UNL     1     -11.637  -2.455  -4.570  0.00  0.00    +0.000 C 
ATOM     16  C   UNL     1     -12.912  -1.748  -4.141  0.00  0.00    +0.000 A 
ATOM     17  C   UNL     1     -13.705  -1.064  -5.114  0.00  0.00    +0.000 A 
ATOM     18  C   UNL     1     -14.871  -0.418  -4.697  0.00  0.00    +0.000 A 
ATOM     19  C   UNL     1     -15.253  -0.432  -3.352  0.00  0.00    +0.000 A 
ATOM     20  C   UNL     1     -14.473  -1.101  -2.406  0.00  0.00    +0.000 A 
ATOM     21  C   UNL     1     -13.280  -1.766  -2.833  0.00  0.00    +0.000 A 
ATOM     22  C   UNL     1     -12.402  -2.504  -1.775  0.00  0.00    +0.000 C 
BRANCH  17  23
ATOM     23  O   UNL     1     -13.288  -1.075  -6.461  0.00  0.00    +0.000 OA
ATOM     24  C   UNL     1     -13.819  -0.098  -7.317  0.00  0.00    +0.000 C 
ENDBRANCH  17  23
ENDBRANCH   3  11
BRANCH   1  25
ATOM     25  C   UNL     1      -9.439  -8.272  -4.567  0.00  0.00    +0.000 C 
BRANCH  25  27
ATOM     26  N   UNL     1      -8.051  -8.332  -6.728  0.00  0.00    +0.000 N 
ATOM     27  C   UNL     1      -8.239  -7.774  -5.383  0.00  0.00    +0.000 C 
ATOM     28  O   UNL     1      -7.495  -6.966  -4.935  0.00  0.00    +0.000 OA
ATOM     29  H   UNL     1      -8.718  -9.024  -7.069  0.00  0.00    +0.000 HD
BRANCH  26  34
ATOM     30  C   UNL     1      -3.993  -9.755  -8.352  0.00  0.00    +0.000 C 
ATOM     31  O   UNL     1      -3.027  -9.563  -7.689  0.00  0.00    +0.000 OA
ATOM     32  N   UNL     1      -5.224  -9.067  -8.007  0.00  0.00    +0.000 N 
ATOM     33  C   UNL     1      -5.619  -8.095  -6.948  0.00  0.00    +0.000 C 
ATOM     34  C   UNL     1      -6.944  -7.934  -7.598  0.00  0.00    +0.000 C 
ATOM     35  C   UNL     1      -6.612  -9.023  -8.554  0.00  0.00    +0.000 C 
BRANCH  30  37
ATOM     36  C   UNL     1      -3.141 -10.193 -10.729  0.00  0.00    +0.000 C 
ATOM     37  C   UNL     1      -3.966 -10.717  -9.555  0.00  0.00    +0.000 C 
ENDBRANCH  30  37
ENDBRANCH  26  34
ENDBRANCH  25  27
ENDBRANCH   1  25
TORSDOF 6
