REMARK  Name = 6hhr_ligand
REMARK  4 active torsions:
REMARK  status: ('A' for Active; 'I' for Inactive)
REMARK    1  A    between atoms: C_1  and  O_21
REMARK    2  A    between atoms: C_3  and  O_20
REMARK    3  A    between atoms: C_4  and  C_11
REMARK    4  A    between atoms: C_6  and  N_16
REMARK                            x       y       z     vdW  Elec       q    Type
REMARK                         _______ _______ _______ _____ _____    ______ ____
ROOT
ATOM      1  C   UNL     1      64.261  34.976  23.621  0.00  0.00    +0.000 A 
ATOM      2  C   UNL     1      64.486  36.769  22.355  0.00  0.00    +0.000 A 
ATOM      3  N   UNL     1      63.531  34.780  22.557  0.00  0.00    +0.000 NA
ATOM      4  N   UNL     1      63.678  35.899  21.729  0.00  0.00    +0.000 N 
ATOM      5  N   UNL     1      64.854  36.227  23.531  0.00  0.00    +0.000 N 
ATOM      6  S   UNL     1      64.977  38.291  21.760  0.00  0.00    +0.000 S 
ATOM      7  H   UNL     1      63.248  36.030  20.813  0.00  0.00    +0.000 HD
ENDROOT
BRANCH   5   8
ATOM      8  C   UNL     1      65.701  36.836  24.481  0.00  0.00    +0.000 A 
ATOM      9  C   UNL     1      67.073  36.916  24.223  0.00  0.00    +0.000 A 
ATOM     10  C   UNL     1      67.928  37.505  25.156  0.00  0.00    +0.000 A 
ATOM     11  C   UNL     1      67.416  38.008  26.352  0.00  0.00    +0.000 A 
ATOM     12  C   UNL     1      66.050  37.928  26.612  0.00  0.00    +0.000 A 
ATOM     13  C   UNL     1      65.194  37.342  25.680  0.00  0.00    +0.000 A 
ATOM     14  F   UNL     1      67.551  36.419  23.059  0.00  0.00    +0.000 F 
ENDBRANCH   5   8
BRANCH   1  18
ATOM     15  C   UNL     1      64.557  32.502  27.068  0.00  0.00    +0.000 A 
ATOM     16  C   UNL     1      63.299  32.828  26.558  0.00  0.00    +0.000 A 
ATOM     17  C   UNL     1      63.207  33.609  25.409  0.00  0.00    +0.000 A 
ATOM     18  C   UNL     1      64.379  34.065  24.777  0.00  0.00    +0.000 A 
ATOM     19  C   UNL     1      65.645  33.749  25.313  0.00  0.00    +0.000 A 
ATOM     20  C   UNL     1      65.725  32.965  26.453  0.00  0.00    +0.000 A 
BRANCH  17  21
ATOM     21  O   UNL     1      61.988  33.916  24.892  0.00  0.00    +0.000 OA
ATOM     22  H   UNL     1      62.102  34.456  24.107  0.00  0.00    +0.000 HD
ENDBRANCH  17  21
BRANCH  15  23
ATOM     23  O   UNL     1      64.649  31.749  28.188  0.00  0.00    +0.000 OA
ATOM     24  H   UNL     1      65.574  31.614  28.407  0.00  0.00    +0.000 HD
ENDBRANCH  15  23
ENDBRANCH   1  18
TORSDOF 4
