REMARK  Name = 6g25_ligand
REMARK  4 active torsions:
REMARK  status: ('A' for Active; 'I' for Inactive)
REMARK    1  A    between atoms: C_1  and  C_5
REMARK    2  A    between atoms: C_2  and  C_12
REMARK    3  A    between atoms: C_10  and  C_16
REMARK    4  A    between atoms: C_11  and  C_13
REMARK                            x       y       z     vdW  Elec       q    Type
REMARK                         _______ _______ _______ _____ _____    ______ ____
ROOT
ATOM      1  C   UNL     1      -3.235   6.935 -17.922  0.00  0.00    +0.000 C 
ATOM      2  N   UNL     1      -3.780   5.771 -18.215  0.00  0.00    +0.000 NA
ATOM      3  C   UNL     1      -4.065   7.068 -20.004  0.00  0.00    +0.000 C 
ATOM      4  N   UNL     1      -4.279   5.828 -19.508  0.00  0.00    +0.000 NA
ATOM      5  C   UNL     1      -3.385   7.792 -19.028  0.00  0.00    +0.000 C 
ENDROOT
BRANCH   3  10
ATOM      6  C   UNL     1      -5.737   7.350 -21.915  0.00  0.00    +0.000 A 
ATOM      7  C   UNL     1      -3.704   8.065 -22.383  0.00  0.00    +0.000 A 
ATOM      8  C   UNL     1      -6.978   6.747 -21.293  0.00  0.00    +0.000 C 
ATOM      9  C   UNL     1      -2.241   8.422 -22.311  0.00  0.00    +0.000 C 
ATOM     10  C   UNL     1      -4.489   7.483 -21.355  0.00  0.00    +0.000 A 
ATOM     11  N   UNL     1      -4.502   8.210 -23.398  0.00  0.00    +0.000 NA
ATOM     12  O   UNL     1      -5.636   7.819 -23.154  0.00  0.00    +0.000 OA
ENDBRANCH   3  10
BRANCH   5  17
ATOM     13  N   UNL     1      -1.874  11.720 -19.416  0.00  0.00    +0.000 NA
ATOM     14  C   UNL     1      -1.087  10.752 -18.955  0.00  0.00    +0.000 A 
ATOM     15  C   UNL     1      -1.567   9.470 -18.765  0.00  0.00    +0.000 A 
ATOM     16  C   UNL     1      -3.676  10.221 -19.650  0.00  0.00    +0.000 A 
ATOM     17  C   UNL     1      -2.893   9.185 -19.122  0.00  0.00    +0.000 A 
ATOM     18  C   UNL     1      -3.138  11.494 -19.760  0.00  0.00    +0.000 A 
ENDBRANCH   5  17
TORSDOF 2
