REMARK  Name = 6e6v_ligand
REMARK  4 active torsions:
REMARK  status: ('A' for Active; 'I' for Inactive)
REMARK    1  A    between atoms: C_2  and  O_3
REMARK    2  A    between atoms: C_2  and  C_4
REMARK    3  A    between atoms: C_6  and  C_7
REMARK    4  A    between atoms: C_11  and  O_12
REMARK                            x       y       z     vdW  Elec       q    Type
REMARK                         _______ _______ _______ _____ _____    ______ ____
ROOT
ATOM      1  C   UNK A   1     -19.209  17.343  14.796  0.00  0.00    +0.000 C 
ATOM      2  N   UNK A   1     -19.911  18.077  15.778  0.00  0.00    +0.000 NA
ATOM      3  C   UNK A   0     -21.035  18.872  15.458  0.00  0.00    +0.000 C 
ATOM      4  C   UNK A   0     -21.729  19.606  16.492  0.00  0.00    +0.000 C 
ATOM      5  C   UNK A   1     -21.456  18.930  14.121  0.00  0.00    +0.000 C 
ATOM      6  C   UNK A   1     -20.798  18.205  13.120  0.00  0.00    +0.000 C 
ATOM      7  O   UNK A   1     -21.247  18.306  11.954  0.00  0.00    +0.000 OA
ATOM      8  C   UNK A   1     -19.667  17.419  13.472  0.00  0.00    +0.000 C 
ENDROOT
BRANCH   1  10
ATOM      9  O   UNK A   1     -18.104  16.563  16.558  0.00  0.00    +0.000 OA
ATOM     10  C   UNK A   1     -18.145  16.584  15.314  0.00  0.00    +0.000 C 
BRANCH  10  11
ATOM     11  O   UNK A   1     -17.262  15.934  14.649  0.00  0.00    +0.000 OA
ATOM     12  H   UNK A   1     -17.424  16.046  13.709  0.00  0.00    +0.000 HD
ENDBRANCH  10  11
ENDBRANCH   1  10
BRANCH   8  13
ATOM     13  O   UNK A   1     -19.032  16.703  12.522  0.00  0.00    +0.000 OA
ATOM     14  H   UNK A   1     -18.296  16.231  12.917  0.00  0.00    +0.000 HD
ENDBRANCH   8  13
TORSDOF 3
