REMARK  Name = 6jon_ligand
REMARK  14 active torsions:
REMARK  status: ('A' for Active; 'I' for Inactive)
REMARK    1  A    between atoms: P_1  and  O_2
REMARK    2  A    between atoms: P_1  and  O_4
REMARK    3  A    between atoms: P_1  and  O_8
REMARK    4  A    between atoms: P_5  and  O_7
REMARK    5  A    between atoms: P_5  and  O_8
REMARK    6  A    between atoms: P_5  and  O_12
REMARK    7  A    between atoms: P_9  and  O_11
REMARK    8  A    between atoms: P_9  and  O_12
REMARK    9  A    between atoms: P_9  and  O_13
REMARK   10  A    between atoms: O_13  and  C_14
REMARK   11  A    between atoms: C_14  and  C_15
REMARK   12  A    between atoms: C_17  and  O_18
REMARK   13  A    between atoms: C_20  and  N_21
REMARK   14  A    between atoms: C_25  and  N_26
REMARK                            x       y       z     vdW  Elec       q    Type
REMARK                         _______ _______ _______ _____ _____    ______ ____
ROOT
ATOM      1  C   UNL     1     -17.151  21.590  -1.414  0.00  0.00    +0.000 C 
ATOM      2  O   UNL     1     -17.298  21.770  -2.831  0.00  0.00    +0.000 OA
ATOM      3  C   UNL     1     -15.878  20.810  -1.185  0.00  0.00    +0.000 C 
ATOM      4  C   UNL     1     -15.832  19.956  -2.482  0.00  0.00    +0.000 C 
ATOM      5  C   UNL     1     -16.519  20.869  -3.570  0.00  0.00    +0.000 C 
ENDROOT
BRANCH   5   6
ATOM      6  N   UNL     1     -15.573  21.659  -4.505  0.00  0.00    +0.000 N 
ATOM      7  C   UNL     1     -14.666  22.627  -4.039  0.00  0.00    +0.000 A 
ATOM      8  N   UNL     1     -13.940  23.191  -5.037  0.00  0.00    +0.000 NA
ATOM      9  C   UNL     1     -14.374  22.579  -6.238  0.00  0.00    +0.000 A 
ATOM     10  C   UNL     1     -13.994  22.740  -7.632  0.00  0.00    +0.000 A 
ATOM     11  N   UNL     1     -14.629  21.969  -8.569  0.00  0.00    +0.000 NA
ATOM     12  C   UNL     1     -15.607  21.067  -8.151  0.00  0.00    +0.000 A 
ATOM     13  N   UNL     1     -16.026  20.850  -6.878  0.00  0.00    +0.000 NA
ATOM     14  C   UNL     1     -15.399  21.617  -5.913  0.00  0.00    +0.000 A 
BRANCH  10  15
ATOM     15  N   UNL     1     -13.004  23.653  -8.061  0.00  0.00    +0.000 N 
ATOM     16  H   UNL     1     -12.519  24.237  -7.380  0.00  0.00    +0.000 HD
ATOM     17  H   UNL     1     -12.774  23.728  -9.052  0.00  0.00    +0.000 HD
ENDBRANCH  10  15
ENDBRANCH   5   6
BRANCH   3  18
ATOM     18  O   UNL     1     -16.016  20.025  -0.014  0.00  0.00    +0.000 OA
ATOM     19  H   UNL     1     -15.208  19.528   0.134  0.00  0.00    +0.000 HD
ENDBRANCH   3  18
BRANCH   1  20
ATOM     20  C   UNL     1     -17.059  22.973  -0.597  0.00  0.00    +0.000 C 
BRANCH  20  21
ATOM     21  O   UNL     1     -16.114  23.783  -1.136  0.00  0.00    +0.000 OA
BRANCH  21  22
ATOM     22  P   UNL     1     -14.758  24.464  -0.013  0.00  0.00    +0.000 P 
ATOM     23  O   UNL     1     -14.305  25.560  -0.935  0.00  0.00    +0.000 OA
BRANCH  22  24
ATOM     24  O   UNL     1     -15.574  24.922   1.180  0.00  0.00    +0.000 OA
ATOM     25  H   UNL     1     -15.819  24.160   1.710  0.00  0.00    +0.000 HD
ENDBRANCH  22  24
BRANCH  22  26
ATOM     26  O   UNL     1     -13.810  23.256   0.217  0.00  0.00    +0.000 OA
BRANCH  26  27
ATOM     27  P   UNL     1     -13.781  22.134   1.696  0.00  0.00    +0.000 P 
ATOM     28  O   UNL     1     -13.485  20.858   0.961  0.00  0.00    +0.000 OA
BRANCH  27  29
ATOM     29  O   UNL     1     -15.201  22.215   2.217  0.00  0.00    +0.000 OA
ATOM     30  H   UNL     1     -15.326  23.050   2.675  0.00  0.00    +0.000 HD
ENDBRANCH  27  29
BRANCH  27  31
ATOM     31  O   UNL     1     -12.687  22.540   2.739  0.00  0.00    +0.000 OA
BRANCH  31  32
ATOM     32  P   UNL     1     -12.407  24.203   3.459  0.00  0.00    +0.000 P 
ATOM     33  O   UNL     1     -13.769  24.850   3.380  0.00  0.00    +0.000 OA
BRANCH  32  34
ATOM     34  O   UNL     1     -11.377  24.856   2.555  0.00  0.00    +0.000 OA
ATOM     35  H   UNL     1     -10.536  24.402   2.650  0.00  0.00    +0.000 HD
ENDBRANCH  32  34
BRANCH  32  36
ATOM     36  O   UNL     1     -11.925  24.072   4.893  0.00  0.00    +0.000 OA
ATOM     37  H   UNL     1     -11.059  23.658   4.902  0.00  0.00    +0.000 HD
ENDBRANCH  32  36
ENDBRANCH  31  32
ENDBRANCH  27  31
ENDBRANCH  26  27
ENDBRANCH  22  26
ENDBRANCH  21  22
ENDBRANCH  20  21
ENDBRANCH   1  20
TORSDOF 14
