REMARK  Name = 6gga_ligand
REMARK  5 active torsions:
REMARK  status: ('A' for Active; 'I' for Inactive)
REMARK    1  A    between atoms: N_7  and  C_14
REMARK    2  A    between atoms: C_13  and  C_16
REMARK    3  A    between atoms: C_14  and  C_15
REMARK    4  A    between atoms: C_16  and  N_17
REMARK    5  A    between atoms: N_17  and  C_18
REMARK                            x       y       z     vdW  Elec       q    Type
REMARK                         _______ _______ _______ _____ _____    ______ ____
ROOT
ATOM      1  C   UNL     1      90.702  95.547 -45.557  0.00  0.00    +0.000 A 
ATOM      2  C   UNL     1      90.663  94.417 -46.414  0.00  0.00    +0.000 A 
ATOM      3  C   UNL     1      90.946  93.117 -45.926  0.00  0.00    +0.000 A 
ATOM      4  C   UNL     1      91.267  92.939 -44.572  0.00  0.00    +0.000 A 
ATOM      5  C   UNL     1      91.298  94.055 -43.720  0.00  0.00    +0.000 A 
ATOM      6  C   UNL     1      91.020  95.340 -44.197  0.00  0.00    +0.000 A 
ATOM      7  N   UNL     1      91.585  94.105 -42.399  0.00  0.00    +0.000 N 
ATOM      8  C   UNL     1      91.144  96.202 -43.107  0.00  0.00    +0.000 A 
ATOM      9  C   UNL     1      91.489  95.403 -42.003  0.00  0.00    +0.000 A 
ATOM     10  C   UNL     1      90.992  97.598 -42.977  0.00  0.00    +0.000 A 
ATOM     11  C   UNL     1      91.688  95.995 -40.741  0.00  0.00    +0.000 A 
ATOM     12  C   UNL     1      91.540  97.396 -40.604  0.00  0.00    +0.000 A 
ATOM     13  C   UNL     1      91.180  98.206 -41.715  0.00  0.00    +0.000 A 
ATOM     14 BR   UNL     1      90.905  91.612 -47.031  0.00  0.00    +0.000 Br
ENDROOT
BRANCH   7  15
ATOM     15  C   UNL     1      91.913  92.963 -41.585  0.00  0.00    +0.000 C 
ATOM     16  C   UNL     1      93.436  92.705 -41.565  0.00  0.00    +0.000 C 
ENDBRANCH   7  15
BRANCH  13  17
ATOM     17  C   UNL     1      91.029  99.678 -41.577  0.00  0.00    +0.000 C 
BRANCH  17  18
ATOM     18  N   UNL     1      89.723 100.056 -41.003  0.00  0.00    +0.000 N 
ATOM     19  C   UNL     1      89.571 101.511 -40.789  0.00  0.00    +0.000 C 
ATOM     20  H   UNL     1      89.646  99.603 -40.093  0.00  0.00    +0.000 HD
ATOM     21  H   UNL     1      89.002  99.767 -41.664  0.00  0.00    +0.000 HD
ENDBRANCH  17  18
ENDBRANCH  13  17
TORSDOF 3
