REMARK  Name = 6d40_ligand
REMARK  27 active torsions:
REMARK  status: ('A' for Active; 'I' for Inactive)
REMARK    1  A    between atoms: CA_6  and  CB_9
REMARK    2  A    between atoms: CB_9  and  CG_10
REMARK    3  A    between atoms: CG_10  and  CD_11
REMARK    4  A    between atoms: CD_11  and  NE_12
REMARK    5  A    between atoms: CA_23  and  CB_26
REMARK    6  A    between atoms: CB_26  and  CG_27
REMARK    7  A    between atoms: CZ_32  and  OH_33
REMARK    8  A    between atoms: CA_35  and  CB_38
REMARK    9  A    between atoms: CB_38  and  CG_39
REMARK   10  A    between atoms: CG_39  and  CD_40
REMARK   11  A    between atoms: CD_40  and  CE_41
REMARK   12  A    between atoms: CE_41  and  NZ_42
REMARK   13  A    between atoms: C_44  and  C_47
REMARK   14  A    between atoms: C_47  and  O_48
REMARK   15  A    between atoms: C_50  and  C_53
REMARK   16  A    between atoms: C_53  and  C_54
REMARK   17  A    between atoms: C_53  and  C_55
REMARK   18  A    between atoms: C_54  and  C_56
REMARK   19  A    between atoms: C_72  and  C_75
REMARK   20  A    between atoms: C_75  and  C_76
REMARK   21  A    between atoms: C_75  and  C_77
REMARK   22  A    between atoms: C_76  and  C_78
REMARK   23  A    between atoms: C_86  and  C_89
REMARK   24  A    between atoms: C_89  and  C_90
REMARK   25  A    between atoms: C_104  and  C_107
REMARK   26  A    between atoms: C_107  and  C_108
REMARK   27  A    between atoms: C_108  and  O_109
REMARK                            x       y       z     vdW  Elec       q    Type
REMARK                         _______ _______ _______ _____ _____    ______ ____
ROOT
ATOM      1  N   UNK A   5      58.628  15.766 115.736  0.00  0.00    +0.000 N 
ATOM      2  C   UNK A   0      59.580  16.122 114.702  0.00  0.00    +0.000 C 
ATOM      3  C   UNK A   0      59.012  16.010 113.300  0.00  0.00    +0.000 C 
ATOM      4  O   UNK A   0      59.554  16.588 112.359  0.00  0.00    +0.000 OA
ATOM      5  N   ARG A   1      57.920  15.261 113.162  0.00  0.00    +0.000 N 
ATOM      6  CA  ARG A   1      57.288  15.095 111.857  0.00  0.00    +0.000 C 
ATOM      7  C   ARG A   1      56.696  16.411 111.380  0.00  0.00    +0.000 C 
ATOM      8  O   ARG A   1      56.028  17.125 112.131  0.00  0.00    +0.000 OA
ATOM      9  N   UNK A   2      56.919  16.726 110.111  0.00  0.00    +0.000 N 
ATOM     10  C   UNK A   2      56.241  17.855 109.493  0.00  0.00    +0.000 C 
ATOM     11  C   UNK A   2      55.653  17.396 108.172  0.00  0.00    +0.000 C 
ATOM     12  O   UNK A   2      56.359  16.811 107.343  0.00  0.00    +0.000 OA
ATOM     13  C   UNK A   2      57.185  19.038 109.260  0.00  0.00    +0.000 C 
ATOM     14  S   UNK A   2      57.691  19.900 110.754  0.00  0.00    +0.000 S 
ATOM     15  N   TYR A   3      54.359  17.635 107.999  0.00  0.00    +0.000 N 
ATOM     16  CA  TYR A   3      53.726  17.415 106.707  0.00  0.00    +0.000 C 
ATOM     17  C   TYR A   3      54.124  18.552 105.779  0.00  0.00    +0.000 C 
ATOM     18  O   TYR A   3      54.235  19.704 106.201  0.00  0.00    +0.000 OA
ATOM     19  N   LYS A   4      54.353  18.218 104.505  0.00  0.00    +0.000 N 
ATOM     20  CA  LYS A   4      55.026  19.112 103.552  0.00  0.00    +0.000 C 
ATOM     21  C   LYS A   4      54.088  20.048 102.787  0.00  0.00    +0.000 C 
ATOM     22  O   LYS A   4      54.294  20.306 101.597  0.00  0.00    +0.000 OA
ATOM     23  N   UNK A   5      53.047  20.562 103.437  0.00  0.00    +0.000 N 
ATOM     24  C   UNK A   5      52.207  21.616 102.892  0.00  0.00    +0.000 C 
ATOM     25  C   UNK A   5      52.829  22.990 103.154  0.00  0.00    +0.000 C 
ATOM     26  O   UNK A   5      53.840  23.124 103.855  0.00  0.00    +0.000 OA
ATOM     27  N   UNK A   5      52.211  24.026 102.586  0.00  0.00    +0.000 N 
ATOM     28  C   UNK A   5      52.507  25.416 102.910  0.00  0.00    +0.000 C 
ATOM     29  C   UNK A   5      51.264  26.015 103.570  0.00  0.00    +0.000 C 
ATOM     30  O   UNK A   5      50.230  26.165 102.906  0.00  0.00    +0.000 OA
ATOM     31  N   UNK A   5      51.311  26.376 104.863  0.00  0.00    +0.000 N 
ATOM     32  C   UNK A   5      52.430  26.171 105.787  0.00  0.00    +0.000 C 
ATOM     33  C   UNK A   5      52.512  24.709 106.218  0.00  0.00    +0.000 C 
ATOM     34  O   UNK A   5      51.518  23.985 106.089  0.00  0.00    +0.000 OA
ATOM     35  C   UNK A   5      52.063  27.067 106.978  0.00  0.00    +0.000 C 
ATOM     36  C   UNK A   5      50.578  27.115 106.961  0.00  0.00    +0.000 C 
ATOM     37  C   UNK A   5      50.188  27.084 105.502  0.00  0.00    +0.000 C 
ATOM     38  N   UNK A   5      53.679  24.270 106.682  0.00  0.00    +0.000 N 
ATOM     39  C   UNK A   5      53.792  22.895 107.172  0.00  0.00    +0.000 C 
ATOM     40  C   UNK A   5      52.943  22.702 108.416  0.00  0.00    +0.000 C 
ATOM     41  O   UNK A   5      52.683  23.638 109.175  0.00  0.00    +0.000 OA
ATOM     42  C   UNK A   5      55.283  22.758 107.501  0.00  0.00    +0.000 C 
ATOM     43  C   UNK A   5      55.731  24.169 107.776  0.00  0.00    +0.000 C 
ATOM     44  C   UNK A   5      54.955  25.000 106.786  0.00  0.00    +0.000 C 
ATOM     45  N   UNK A   5      52.488  21.468 108.603  0.00  0.00    +0.000 N 
ATOM     46  C   UNK A   5      51.825  21.041 109.830  0.00  0.00    +0.000 C 
ATOM     47  C   UNK A   5      52.824  20.166 110.572  0.00  0.00    +0.000 C 
ATOM     48  O   UNK A   5      53.232  19.115 110.065  0.00  0.00    +0.000 OA
ATOM     49  N   UNK A   5      53.236  20.603 111.762  0.00  0.00    +0.000 N 
ATOM     50  C   UNK A   5      54.344  19.974 112.466  0.00  0.00    +0.000 C 
ATOM     51  C   UNK A   5      53.904  19.421 113.813  0.00  0.00    +0.000 C 
ATOM     52  O   UNK A   5      52.937  19.890 114.421  0.00  0.00    +0.000 OA
ATOM     53  C   UNK A   5      55.521  20.942 112.641  0.00  0.00    +0.000 C 
ATOM     54  S   UNK A   5      56.310  21.379 111.071  0.00  0.00    +0.000 S 
ATOM     55  N   UNK A   5      54.647  18.429 114.280  0.00  0.00    +0.000 N 
ATOM     56  C   UNK A   5      54.330  17.698 115.496  0.00  0.00    +0.000 C 
ATOM     57  C   UNK A   5      55.527  17.669 116.430  0.00  0.00    +0.000 C 
ATOM     58  O   UNK A   5      56.672  17.835 115.998  0.00  0.00    +0.000 OA
ATOM     59  N   UNK A   5      55.290  17.475 117.730  0.00  0.00    +0.000 N 
ATOM     60  C   UNK A   5      56.400  17.529 118.696  0.00  0.00    +0.000 C 
ATOM     61  C   UNK A   5      57.490  16.501 118.447  0.00  0.00    +0.000 C 
ATOM     62  O   UNK A   5      58.622  16.705 118.904  0.00  0.00    +0.000 OA
ATOM     63  C   UNK A   5      55.707  17.302 120.049  0.00  0.00    +0.000 C 
ATOM     64  C   UNK A   5      54.271  17.654 119.808  0.00  0.00    +0.000 C 
ATOM     65  C   UNK A   5      53.990  17.273 118.386  0.00  0.00    +0.000 C 
ATOM     66  N   UNK A   5      57.194  15.411 117.741  0.00  0.00    +0.000 N 
ATOM     67  C   UNK A   5      58.178  14.355 117.511  0.00  0.00    +0.000 C 
ATOM     68  C   UNK A   5      58.987  14.589 116.232  0.00  0.00    +0.000 C 
ATOM     69  O   UNK A   5      59.902  13.823 115.920  0.00  0.00    +0.000 OA
ATOM     70  O   UNK A   0      58.734  15.547 115.497  0.00  0.00    +0.000 OA
ATOM     71  H   ARG A   1      57.520  14.798 113.978  0.00  0.00    +0.000 HD
ATOM     72  H   UNK A   2      57.574  16.170 109.562  0.00  0.00    +0.000 HD
ATOM     73  H   TYR A   3      53.801  17.977 108.781  0.00  0.00    +0.000 HD
ATOM     74  H   LYS A   4      54.047  17.301 104.180  0.00  0.00    +0.000 HD
ATOM     75  H   UNK A   5      52.827  20.198 104.364  0.00  0.00    +0.000 HD
ATOM     76  H   UNK A   5      51.493  23.836 101.887  0.00  0.00    +0.000 HD
ATOM     77  H   UNK A   5      52.608  20.787 107.853  0.00  0.00    +0.000 HD
ATOM     78  H   UNK A   5      52.763  21.399 112.190  0.00  0.00    +0.000 HD
ATOM     79  H   UNK A   5      55.484  18.165 113.760  0.00  0.00    +0.000 HD
ATOM     80  H   UNK A   5      56.257  15.311 117.351  0.00  0.00    +0.000 HD
ENDROOT
BRANCH  46  81
ATOM     81  C   UNK A   5      50.523  20.281 109.525  0.00  0.00    +0.000 C 
ATOM     82  C   UNK A   5      49.864  19.790 110.809  0.00  0.00    +0.000 C 
BRANCH  81  83
ATOM     83  C   UNK A   5      49.582  21.165 108.692  0.00  0.00    +0.000 C 
ATOM     84  C   UNK A   5      48.535  20.406 107.895  0.00  0.00    +0.000 C 
ENDBRANCH  81  83
ENDBRANCH  46  81
BRANCH  28  85
ATOM     85  C   UNK A   5      52.909  26.240 101.678  0.00  0.00    +0.000 C 
ATOM     86  C   UNK A   5      53.063  27.714 102.054  0.00  0.00    +0.000 C 
BRANCH  85  87
ATOM     87  C   UNK A   5      54.219  25.725 101.073  0.00  0.00    +0.000 C 
ATOM     88  C   UNK A   5      54.561  26.385  99.752  0.00  0.00    +0.000 C 
ENDBRANCH  85  87
ENDBRANCH  28  85
BRANCH  24  89
ATOM     89  C   UNK A   5      50.821  21.553 103.535  0.00  0.00    +0.000 C 
BRANCH  89  90
ATOM     90  O   UNK A   5      50.939  21.471 104.958  0.00  0.00    +0.000 OA
ATOM     91  H   UNK A   5      50.063  21.432 105.349  0.00  0.00    +0.000 HD
ENDBRANCH  89  90
ENDBRANCH  24  89
BRANCH  20  92
ATOM     92  CB  LYS A   4      55.904  18.287 102.611  0.00  0.00    +0.000 C 
BRANCH  92  93
ATOM     93  CG  LYS A   4      57.072  17.643 103.367  0.00  0.00    +0.000 C 
BRANCH  93  94
ATOM     94  CD  LYS A   4      57.842  16.630 102.535  0.00  0.00    +0.000 C 
BRANCH  94  95
ATOM     95  CE  LYS A   4      59.070  16.125 103.311  0.00  0.00    +0.000 C 
BRANCH  95  96
ATOM     96  NZ  LYS A   4      59.756  15.045 102.546  0.00  0.00    +0.000 N 
ATOM     97  HZ1 LYS A   4      60.567  14.720 103.072  0.00  0.00    +0.000 HD
ATOM     98  HZ2 LYS A   4      59.110  14.269 102.402  0.00  0.00    +0.000 HD
ATOM     99  HZ3 LYS A   4      60.059  15.409 101.643  0.00  0.00    +0.000 HD
ENDBRANCH  95  96
ENDBRANCH  94  95
ENDBRANCH  93  94
ENDBRANCH  92  93
ENDBRANCH  20  92
BRANCH  16 100
ATOM    100  CB  TYR A   3      52.207  17.334 106.884  0.00  0.00    +0.000 C 
BRANCH 100 101
ATOM    101  CG  TYR A   3      51.774  16.044 107.562  0.00  0.00    +0.000 A 
ATOM    102  CD1 TYR A   3      51.735  15.944 108.945  0.00  0.00    +0.000 A 
ATOM    103  CD2 TYR A   3      51.432  14.919 106.821  0.00  0.00    +0.000 A 
ATOM    104  CE1 TYR A   3      51.364  14.766 109.570  0.00  0.00    +0.000 A 
ATOM    105  CE2 TYR A   3      51.057  13.731 107.442  0.00  0.00    +0.000 A 
ATOM    106  CZ  TYR A   3      51.021  13.667 108.825  0.00  0.00    +0.000 A 
BRANCH 106 107
ATOM    107  OH  TYR A   3      50.658  12.512 109.489  0.00  0.00    +0.000 OA
ATOM    108  HH  TYR A   3      50.445  11.829 108.848  0.00  0.00    +0.000 HD
ENDBRANCH 106 107
ENDBRANCH 100 101
ENDBRANCH  16 100
BRANCH  56 109
ATOM    109  C   UNK A   5      53.898  16.268 115.135  0.00  0.00    +0.000 C 
BRANCH 109 110
ATOM    110  C   UNK A   5      52.618  16.217 114.360  0.00  0.00    +0.000 A 
ATOM    111  C   UNK A   5      52.610  16.446 112.993  0.00  0.00    +0.000 A 
ATOM    112  C   UNK A   5      51.416  15.972 114.997  0.00  0.00    +0.000 A 
ATOM    113  C   UNK A   5      51.429  16.421 112.281  0.00  0.00    +0.000 A 
ATOM    114  C   UNK A   5      50.231  15.939 114.280  0.00  0.00    +0.000 A 
ATOM    115  C   UNK A   5      50.237  16.163 112.930  0.00  0.00    +0.000 A 
ENDBRANCH 109 110
ENDBRANCH  56 109
BRANCH  67 116
ATOM    116  C   UNK A   5      57.499  12.981 117.465  0.00  0.00    +0.000 C 
BRANCH 116 117
ATOM    117  C   UNK A   5      56.952  12.637 116.086  0.00  0.00    +0.000 C 
ATOM    118  O   UNK A   5      57.100  11.468 115.672  0.00  0.00    +0.000 OA
BRANCH 117 119
ATOM    119  O   UNK A   5      56.379  13.525 115.413  0.00  0.00    +0.000 OA
ATOM    120  H   UNK A   5      56.371  14.346 115.910  0.00  0.00    +0.000 HD
ENDBRANCH 117 119
ENDBRANCH 116 117
ENDBRANCH  67 116
BRANCH   6 121
ATOM    121  CB  ARG A   1      56.152  14.073 111.935  0.00  0.00    +0.000 C 
BRANCH 121 122
ATOM    122  CG  ARG A   1      56.568  12.650 112.255  0.00  0.00    +0.000 C 
BRANCH 122 123
ATOM    123  CD  ARG A   1      55.492  11.671 111.795  0.00  0.00    +0.000 C 
BRANCH 123 124
ATOM    124  NE  ARG A   1      54.192  11.974 112.389  0.00  0.00    +0.000 N 
ATOM    125  CZ  ARG A   1      53.061  12.088 111.701  0.00  0.00    +0.000 C 
ATOM    126  NH1 ARG A   1      53.063  11.914 110.383  0.00  0.00    +0.000 NA
ATOM    127  NH2 ARG A   1      51.925  12.367 112.334  0.00  0.00    +0.000 N 
ATOM    128  HE  ARG A   1      54.150  12.107 113.399  0.00  0.00    +0.000 HD
ATOM    129  HH1 ARG A   1      53.933  11.693 109.899  0.00  0.00    +0.000 HD
ATOM    130 HH21 ARG A   1      51.055  12.448 111.808  0.00  0.00    +0.000 HD
ATOM    131 HH22 ARG A   1      51.924  12.500 113.345  0.00  0.00    +0.000 HD
ENDBRANCH 123 124
ENDBRANCH 122 123
ENDBRANCH 121 122
ENDBRANCH   6 121
TORSDOF 23
