REMARK  Name = 6jag_ligand
REMARK  13 active torsions:
REMARK  status: ('A' for Active; 'I' for Inactive)
REMARK    1  A    between atoms: C_1  and  O_7
REMARK    2  A    between atoms: C_2  and  O_8
REMARK    3  A    between atoms: C_3  and  O_9
REMARK    4  A    between atoms: C_4  and  O_10
REMARK    5  A    between atoms: C_5  and  C_6
REMARK    6  A    between atoms: C_6  and  O_12
REMARK    7  A    between atoms: O_7  and  C_14
REMARK    8  A    between atoms: C_13  and  C_14
REMARK    9  A    between atoms: C_13  and  O_19
REMARK   10  A    between atoms: C_15  and  O_21
REMARK   11  A    between atoms: C_16  and  O_22
REMARK   12  A    between atoms: C_17  and  C_18
REMARK   13  A    between atoms: C_18  and  O_23
REMARK                            x       y       z     vdW  Elec       q    Type
REMARK                         _______ _______ _______ _____ _____    ______ ____
ROOT
ATOM      1  O   UNL     1      -6.896 -33.422 -14.821  0.00  0.00    +0.000 OA
ENDROOT
BRANCH   1   2
ATOM      2  C   UNL     1      -6.652 -32.499 -13.771  0.00  0.00    +0.000 C 
ATOM      3  C   UNL     1      -8.018 -32.169 -13.128  0.00  0.00    +0.000 C 
ATOM      4  C   UNL     1      -8.808 -31.211 -14.015  0.00  0.00    +0.000 C 
ATOM      5  C   UNL     1      -7.945 -29.965 -14.251  0.00  0.00    +0.000 C 
ATOM      6  C   UNL     1      -6.648 -30.384 -14.932  0.00  0.00    +0.000 C 
ATOM      7  O   UNL     1      -5.935 -31.326 -14.118  0.00  0.00    +0.000 OA
BRANCH   3   8
ATOM      8  O   UNL     1      -8.821 -33.333 -12.920  0.00  0.00    +0.000 OA
ATOM      9  H   UNL     1      -8.345 -33.953 -12.363  0.00  0.00    +0.000 HD
ENDBRANCH   3   8
BRANCH   4  10
ATOM     10  O   UNL     1     -10.013 -30.786 -13.294  0.00  0.00    +0.000 OA
ATOM     11  H   UNL     1     -10.573 -31.549 -13.132  0.00  0.00    +0.000 HD
ENDBRANCH   4  10
BRANCH   5  12
ATOM     12  O   UNL     1      -8.665 -28.969 -15.003  0.00  0.00    +0.000 OA
ATOM     13  H   UNL     1      -9.471 -28.738 -14.536  0.00  0.00    +0.000 HD
ENDBRANCH   5  12
BRANCH   6  14
ATOM     14  C   UNL     1      -5.767 -29.152 -15.109  0.00  0.00    +0.000 C 
BRANCH  14  15
ATOM     15  O   UNL     1      -4.594 -29.433 -15.912  0.00  0.00    +0.000 OA
ATOM     16  H   UNL     1      -4.068 -28.634 -15.999  0.00  0.00    +0.000 HD
ENDBRANCH  14  15
ENDBRANCH   6  14
ENDBRANCH   1   2
BRANCH   1  17
ATOM     17  C   UNL     1      -5.804 -34.177 -15.376  0.00  0.00    +0.000 C 
ATOM     18  C   UNL     1      -5.518 -35.437 -14.474  0.00  0.00    +0.000 C 
ATOM     19  C   UNL     1      -6.513 -36.451 -14.971  0.00  0.00    +0.000 C 
ATOM     20  C   UNL     1      -6.395 -36.175 -16.485  0.00  0.00    +0.000 C 
ATOM     21  O   UNL     1      -6.277 -34.750 -16.588  0.00  0.00    +0.000 OA
BRANCH  18  22
ATOM     22  O   UNL     1      -5.437 -35.286 -13.059  0.00  0.00    +0.000 OA
ATOM     23  H   UNL     1      -5.259 -36.139 -12.657  0.00  0.00    +0.000 HD
ENDBRANCH  18  22
BRANCH  19  24
ATOM     24  O   UNL     1      -6.198 -37.841 -14.631  0.00  0.00    +0.000 OA
ATOM     25  H   UNL     1      -6.879 -38.418 -14.984  0.00  0.00    +0.000 HD
ENDBRANCH  19  24
BRANCH  17  26
ATOM     26  C   UNL     1      -4.515 -33.373 -15.571  0.00  0.00    +0.000 C 
BRANCH  26  27
ATOM     27  O   UNL     1      -3.531 -34.179 -16.238  0.00  0.00    +0.000 OA
ATOM     28  H   UNL     1      -2.727 -33.668 -16.356  0.00  0.00    +0.000 HD
ENDBRANCH  26  27
ENDBRANCH  17  26
BRANCH  20  29
ATOM     29  C   UNL     1      -7.586 -36.622 -17.250  0.00  0.00    +0.000 C 
BRANCH  29  30
ATOM     30  O   UNL     1      -7.404 -36.523 -18.680  0.00  0.00    +0.000 OA
ATOM     31  H   UNL     1      -8.200 -36.823 -19.124  0.00  0.00    +0.000 HD
ENDBRANCH  29  30
ENDBRANCH  20  29
ENDBRANCH   1  17
TORSDOF 13
