REMARK  Name = 6qfe_ligand
REMARK  8 active torsions:
REMARK  status: ('A' for Active; 'I' for Inactive)
REMARK    1  A    between atoms: C_1  and  C_19
REMARK    2  A    between atoms: C_3  and  C_21
REMARK    3  A    between atoms: C_7  and  O_26
REMARK    4  A    between atoms: C_8  and  O_26
REMARK    5  A    between atoms: C_8  and  C_27
REMARK    6  A    between atoms: C_12  and  C_14
REMARK    7  A    between atoms: C_17  and  N_18
REMARK    8  A    between atoms: N_18  and  C_19
REMARK                            x       y       z     vdW  Elec       q    Type
REMARK                         _______ _______ _______ _____ _____    ______ ____
ROOT
ATOM      1  C   UNL     1      -3.137 -14.965  65.924  0.00  0.00    +0.000 A 
ATOM      2  C   UNL     1      -2.150 -14.378  65.141  0.00  0.00    +0.000 A 
ATOM      3  C   UNL     1      -1.836 -14.899  63.868  0.00  0.00    +0.000 A 
ATOM      4  C   UNL     1      -2.566 -16.003  63.412  0.00  0.00    +0.000 A 
ATOM      5  C   UNL     1      -3.568 -16.567  64.176  0.00  0.00    +0.000 A 
ATOM      6  C   UNL     1      -3.877 -16.046  65.424  0.00  0.00    +0.000 A 
ENDROOT
BRANCH   3   8
ATOM      7  N   UNL     1      -0.425 -13.068  63.022  0.00  0.00    +0.000 N 
ATOM      8  C   UNL     1      -0.831 -14.357  62.950  0.00  0.00    +0.000 C 
ATOM      9  N   UNL     1      -0.352 -15.101  62.000  0.00  0.00    +0.000 NA
ATOM     10  H   UNL     1       0.241 -12.704  62.340  0.00  0.00    +0.000 HD
ATOM     11  H   UNL     1      -0.785 -12.460  63.758  0.00  0.00    +0.000 HD
ATOM     12  H   UNL     1       0.313 -14.710  61.332  0.00  0.00    +0.000 HD
ENDBRANCH   3   8
BRANCH   6  13
ATOM     13  N   UNL     1      -4.906 -16.613  66.148  0.00  0.00    +0.000 N 
ATOM     14  H   UNL     1      -5.366 -17.440  65.768  0.00  0.00    +0.000 HD
BRANCH  13  15
ATOM     15  C   UNL     1      -5.369 -16.093  67.424  0.00  0.00    +0.000 C 
BRANCH  15  16
ATOM     16  C   UNL     1      -4.726 -16.796  68.572  0.00  0.00    +0.000 A 
ATOM     17  C   UNL     1      -3.516 -18.152  69.713  0.00  0.00    +0.000 A 
ATOM     18  N   UNL     1      -5.141 -16.668  69.851  0.00  0.00    +0.000 NA
ATOM     19  C   UNL     1      -4.347 -17.497  70.590  0.00  0.00    +0.000 A 
ATOM     20  N   UNL     1      -3.758 -17.695  68.440  0.00  0.00    +0.000 NA
BRANCH  19  21
ATOM     21  C   UNL     1      -4.495 -17.676  72.047  0.00  0.00    +0.000 A 
ATOM     22  C   UNL     1      -5.671 -17.222  74.114  0.00  0.00    +0.000 A 
ATOM     23  C   UNL     1      -3.669 -18.562  72.739  0.00  0.00    +0.000 A 
ATOM     24  C   UNL     1      -5.501 -17.008  72.751  0.00  0.00    +0.000 A 
ATOM     25  C   UNL     1      -4.818 -18.069  74.796  0.00  0.00    +0.000 A 
ATOM     26  C   UNL     1      -3.839 -18.763  74.104  0.00  0.00    +0.000 A 
ENDBRANCH  19  21
ENDBRANCH  15  16
ENDBRANCH  13  15
ENDBRANCH   6  13
BRANCH   2  27
ATOM     27  O   UNL     1      -1.410 -13.289  65.532  0.00  0.00    +0.000 OA
BRANCH  27  28
ATOM     28  C   UNL     1      -1.496 -12.781  66.868  0.00  0.00    +0.000 C 
BRANCH  28  31
ATOM     29  C   UNL     1      -3.384 -11.914  68.298  0.00  0.00    +0.000 A 
ATOM     30  C   UNL     1      -4.954 -10.388  67.379  0.00  0.00    +0.000 A 
ATOM     31  C   UNL     1      -2.730 -11.950  67.070  0.00  0.00    +0.000 A 
ATOM     32  C   UNL     1      -4.502 -11.112  68.462  0.00  0.00    +0.000 A 
ATOM     33  N   UNL     1      -4.375 -10.438  66.167  0.00  0.00    +0.000 NA
ATOM     34  C   UNL     1      -3.270 -11.193  66.044  0.00  0.00    +0.000 A 
ENDBRANCH  28  31
ENDBRANCH  27  28
ENDBRANCH   2  27
TORSDOF 8
