REMARK  Name = 6r4k_ligand
REMARK  13 active torsions:
REMARK  status: ('A' for Active; 'I' for Inactive)
REMARK    1  A    between atoms: C_1  and  C_17
REMARK    2  A    between atoms: C_1  and  N_19
REMARK    3  A    between atoms: C_4  and  O_26
REMARK    4  A    between atoms: C_5  and  O_25
REMARK    5  A    between atoms: C_7  and  C_8
REMARK    6  A    between atoms: C_11  and  O_27
REMARK    7  A    between atoms: C_13  and  C_14
REMARK    8  A    between atoms: C_13  and  O_27
REMARK    9  A    between atoms: C_14  and  O_28
REMARK   10  A    between atoms: C_15  and  C_16
REMARK   11  A    between atoms: C_15  and  O_28
REMARK   12  A    between atoms: C_16  and  N_22
REMARK   13  A    between atoms: N_22  and  N_23
REMARK                            x       y       z     vdW  Elec       q    Type
REMARK                         _______ _______ _______ _____ _____    ______ ____
ROOT
ATOM      1  C   UNL     1      -5.326 -37.159  57.483  0.00  0.00    +0.000 A 
ATOM      2  C   UNL     1      -3.610 -35.473  56.763  0.00  0.00    +0.000 A 
ATOM      3  C   UNL     1      -4.008 -36.582  57.608  0.00  0.00    +0.000 A 
ATOM      4  C   UNL     1      -6.233 -36.574  56.534  0.00  0.00    +0.000 A 
ATOM      5  C   UNL     1      -5.802 -35.465  55.746  0.00  0.00    +0.000 A 
ATOM      6  C   UNL     1      -4.511 -34.916  55.850  0.00  0.00    +0.000 A 
ENDROOT
BRANCH   3   7
ATOM      7  C   UNL     1      -2.984 -37.023  58.409  0.00  0.00    +0.000 C 
ATOM      8  C   UNL     1      -2.995 -38.304  59.282  0.00  0.00    +0.000 C 
ATOM      9  N   UNL     1      -1.583 -38.205  59.816  0.00  0.00    +0.000 N 
ATOM     10  N   UNL     1      -1.074 -37.118  59.288  0.00  0.00    +0.000 NA
ATOM     11  N   UNL     1      -1.807 -36.441  58.471  0.00  0.00    +0.000 NA
BRANCH   9  12
ATOM     12  C   UNL     1      -1.062 -39.283  60.790  0.00  0.00    +0.000 C 
BRANCH  12  16
ATOM     13  C   UNL     1      -0.849 -37.820  64.100  0.00  0.00    +0.000 C 
ATOM     14  C   UNL     1      -1.118 -39.331  64.599  0.00  0.00    +0.000 C 
ATOM     15  C   UNL     1      -1.360 -40.189  63.334  0.00  0.00    +0.000 C 
ATOM     16  C   UNL     1      -1.580 -39.152  62.236  0.00  0.00    +0.000 C 
ATOM     17  N   UNL     1      -0.540 -38.156  62.719  0.00  0.00    +0.000 N 
ATOM     18  H   UNL     1       0.394 -38.562  62.655  0.00  0.00    +0.000 HD
ATOM     19  H   UNL     1      -0.559 -37.317  62.139  0.00  0.00    +0.000 HD
BRANCH  15  20
ATOM     20  O   UNL     1      -2.419 -41.195  63.581  0.00  0.00    +0.000 OA
ATOM     21  H   UNL     1      -2.146 -41.777  64.294  0.00  0.00    +0.000 HD
ENDBRANCH  15  20
BRANCH  14  22
ATOM     22  O   UNL     1      -2.113 -39.499  65.624  0.00  0.00    +0.000 OA
ATOM     23  H   UNL     1      -1.897 -38.938  66.373  0.00  0.00    +0.000 HD
ENDBRANCH  14  22
ENDBRANCH  12  16
ENDBRANCH   9  12
ENDBRANCH   3   7
BRANCH   5  24
ATOM     24  O   UNL     1      -6.648 -34.810  54.794  0.00  0.00    +0.000 OA
BRANCH  24  25
ATOM     25  C   UNL     1      -7.750 -35.597  54.298  0.00  0.00    +0.000 C 
BRANCH  25  26
ATOM     26  C   UNL     1      -8.357 -34.535  53.363  0.00  0.00    +0.000 C 
BRANCH  26  27
ATOM     27  O   UNL     1      -9.038 -35.021  52.227  0.00  0.00    +0.000 OA
BRANCH  27  28
ATOM     28  C   UNL     1      -9.686 -34.000  51.465  0.00  0.00    +0.000 C 
BRANCH  28  29
ATOM     29  C   UNL     1     -10.959 -33.388  52.173  0.00  0.00    +0.000 C 
BRANCH  29  30
ATOM     30  N   UNL     1     -11.375 -32.159  51.309  0.00  0.00    +0.000 N 
ATOM     31  H   UNL     1     -11.722 -31.373  51.859  0.00  0.00    +0.000 HD
BRANCH  30  32
ATOM     32  N   UNL     1     -11.368 -31.931  50.009  0.00  0.00    +0.000 NA
ATOM     33  N   UNL     1     -12.178 -32.368  49.109  0.00  0.00    +0.000 NA
ATOM     34  H   UNL     1     -12.952 -32.978  49.372  0.00  0.00    +0.000 HD
ENDBRANCH  30  32
ENDBRANCH  29  30
ENDBRANCH  28  29
ENDBRANCH  27  28
ENDBRANCH  26  27
ENDBRANCH  25  26
ENDBRANCH  24  25
ENDBRANCH   5  24
TORSDOF 13
