REMARK  Name = 6jaq_ligand
REMARK  6 active torsions:
REMARK  status: ('A' for Active; 'I' for Inactive)
REMARK    1  A    between atoms: C_1  and  O_7
REMARK    2  A    between atoms: C_2  and  O_8
REMARK    3  A    between atoms: C_3  and  O_9
REMARK    4  A    between atoms: C_4  and  O_10
REMARK    5  A    between atoms: C_5  and  C_6
REMARK    6  A    between atoms: C_6  and  O_12
REMARK                            x       y       z     vdW  Elec       q    Type
REMARK                         _______ _______ _______ _____ _____    ______ ____
ROOT
ATOM      1  C   UNL     1      -6.525 -32.209 -14.066  0.00  0.00    +0.000 C 
ATOM      2  C   UNL     1      -7.786 -31.919 -13.275  0.00  0.00    +0.000 C 
ATOM      3  C   UNL     1      -8.623 -30.886 -14.007  0.00  0.00    +0.000 C 
ATOM      4  C   UNL     1      -7.789 -29.629 -14.191  0.00  0.00    +0.000 C 
ATOM      5  C   UNL     1      -6.498 -29.969 -14.934  0.00  0.00    +0.000 C 
ATOM      6  O   UNL     1      -5.805 -30.978 -14.243  0.00  0.00    +0.000 OA
ENDROOT
BRANCH   1   7
ATOM      7  O   UNL     1      -6.868 -32.810 -15.289  0.00  0.00    +0.000 OA
ATOM      8  H   UNL     1      -7.345 -33.626 -15.121  0.00  0.00    +0.000 HD
ENDBRANCH   1   7
BRANCH   2   9
ATOM      9  O   UNL     1      -8.522 -33.144 -13.136  0.00  0.00    +0.000 OA
ATOM     10  H   UNL     1      -7.983 -33.789 -12.672  0.00  0.00    +0.000 HD
ENDBRANCH   2   9
BRANCH   3  11
ATOM     11  O   UNL     1      -9.789 -30.602 -13.212  0.00  0.00    +0.000 OA
ATOM     12  H   UNL     1     -10.305 -31.404 -13.105  0.00  0.00    +0.000 HD
ENDBRANCH   3  11
BRANCH   4  13
ATOM     13  O   UNL     1      -8.547 -28.690 -14.947  0.00  0.00    +0.000 OA
ATOM     14  H   UNL     1      -9.357 -28.480 -14.476  0.00  0.00    +0.000 HD
ENDBRANCH   4  13
BRANCH   5  15
ATOM     15  C   UNL     1      -5.601 -28.743 -15.022  0.00  0.00    +0.000 C 
BRANCH  15  16
ATOM     16  O   UNL     1      -4.434 -28.956 -15.844  0.00  0.00    +0.000 OA
ATOM     17  H   UNL     1      -3.907 -28.154 -15.864  0.00  0.00    +0.000 HD
ENDBRANCH  15  16
ENDBRANCH   5  15
TORSDOF 6
