REMARK  Name = 6o3y_ligand
REMARK  33 active torsions:
REMARK  status: ('A' for Active; 'I' for Inactive)
REMARK    1  A    between atoms: N_1  and  CA_2
REMARK    2  A    between atoms: CA_2  and  C_3
REMARK    3  A    between atoms: CA_2  and  CB_5
REMARK    4  A    between atoms: CB_5  and  CG_6
REMARK    5  A    between atoms: CG_6  and  CD_7
REMARK    6  A    between atoms: CD_7  and  OE2_9
REMARK    7  A    between atoms: N_10  and  CA_11
REMARK    8  A    between atoms: CA_11  and  C_12
REMARK    9  A    between atoms: CA_11  and  CB_14
REMARK   10  A    between atoms: CB_14  and  CG_15
REMARK   11  A    between atoms: CG_15  and  OD1_16
REMARK   12  A    between atoms: CA_19  and  C_20
REMARK   13  A    between atoms: N_25  and  CA_26
REMARK   14  A    between atoms: CA_26  and  C_27
REMARK   15  A    between atoms: CA_26  and  CB_29
REMARK   16  A    between atoms: CB_29  and  CG_30
REMARK   17  A    between atoms: CZ_35  and  OH_36
REMARK   18  A    between atoms: N_37  and  CA_38
REMARK   19  A    between atoms: CA_38  and  C_39
REMARK   20  A    between atoms: CA_38  and  CB_41
REMARK   21  A    between atoms: CB_41  and  CG_42
REMARK   22  A    between atoms: CG_42  and  OD2_44
REMARK   23  A    between atoms: N_45  and  CA_46
REMARK   24  A    between atoms: CA_46  and  C_47
REMARK   25  A    between atoms: CA_46  and  CB_49
REMARK   26  A    between atoms: CB_49  and  CG_50
REMARK   27  A    between atoms: CG_50  and  CD1_51
REMARK   28  A    between atoms: CG_50  and  CD2_52
REMARK   29  A    between atoms: N_53  and  CA_54
REMARK   30  A    between atoms: CA_54  and  C_55
REMARK   31  A    between atoms: CA_54  and  CB_57
REMARK   32  A    between atoms: C_55  and  O_56
REMARK   33  A    between atoms: CB_57  and  CG_58
REMARK                            x       y       z     vdW  Elec       q    Type
REMARK                         _______ _______ _______ _____ _____    ______ ____
ROOT
ATOM      1  CA  TYR A   4      55.852 114.225  16.835  0.00  0.00    +0.000 C 
ENDROOT
BRANCH   1   4
ATOM      2  C   PRO A   3      57.896 115.476  16.304  0.00  0.00    +0.000 C 
ATOM      3  O   PRO A   3      57.316 116.567  16.253  0.00  0.00    +0.000 OA
ATOM      4  N   TYR A   4      57.276 114.318  16.537  0.00  0.00    +0.000 N 
ATOM      5  H   TYR A   4      57.824 113.458  16.505  0.00  0.00    +0.000 HD
BRANCH   2   9
ATOM      6  C   ASP A   2      60.138 116.791  14.306  0.00  0.00    +0.000 C 
ATOM      7  O   ASP A   2      59.717 115.963  13.490  0.00  0.00    +0.000 OA
ATOM      8  N   PRO A   3      59.912 116.664  15.577  0.00  0.00    +0.000 N 
ATOM      9  CA  PRO A   3      59.393 115.404  16.093  0.00  0.00    +0.000 C 
ATOM     10  CB  PRO A   3      60.157 115.240  17.411  0.00  0.00    +0.000 C 
ATOM     11  CG  PRO A   3      60.519 116.674  17.828  0.00  0.00    +0.000 C 
ATOM     12  CD  PRO A   3      60.246 117.597  16.661  0.00  0.00    +0.000 C 
BRANCH   6  13
ATOM     13  CA  ASP A   2      60.898 118.014  13.837  0.00  0.00    +0.000 C 
BRANCH  13  16
ATOM     14  C   GLU A   1      63.240 117.698  14.489  0.00  0.00    +0.000 C 
ATOM     15  O   GLU A   1      63.080 118.227  15.591  0.00  0.00    +0.000 OA
ATOM     16  N   ASP A   2      62.272 117.612  13.570  0.00  0.00    +0.000 N 
ATOM     17  H   ASP A   2      62.505 117.250  12.645  0.00  0.00    +0.000 HD
BRANCH  14  18
ATOM     18  CA  GLU A   1      64.587 117.077  14.104  0.00  0.00    +0.000 C 
BRANCH  18  19
ATOM     19  N   GLU A   1      65.642 118.080  13.954  0.00  0.00    +0.000 N 
ATOM     20  H1  GLU A   1      65.358 118.769  13.258  0.00  0.00    +0.000 HD
ATOM     21  H2  GLU A   1      65.799 118.543  14.849  0.00  0.00    +0.000 HD
ATOM     22  H3  GLU A   1      66.502 117.624  13.651  0.00  0.00    +0.000 HD
ENDBRANCH  18  19
BRANCH  18  23
ATOM     23  CB  GLU A   1      64.982 116.021  15.146  0.00  0.00    +0.000 C 
BRANCH  23  24
ATOM     24  CG  GLU A   1      63.874 115.038  15.427  0.00  0.00    +0.000 C 
BRANCH  24  25
ATOM     25  CD  GLU A   1      63.708 114.048  14.291  0.00  0.00    +0.000 C 
ATOM     26  OE1 GLU A   1      62.721 114.168  13.537  0.00  0.00    +0.000 OA
BRANCH  25  27
ATOM     27  OE2 GLU A   1      64.601 113.195  14.112  0.00  0.00    +0.000 OA
ATOM     28  HE2 GLU A   1      65.262 113.276  14.803  0.00  0.00    +0.000 HD
ENDBRANCH  25  27
ENDBRANCH  24  25
ENDBRANCH  23  24
ENDBRANCH  18  23
ENDBRANCH  14  18
ENDBRANCH  13  16
BRANCH  13  29
ATOM     29  CB  ASP A   2      60.219 118.586  12.595  0.00  0.00    +0.000 C 
BRANCH  29  30
ATOM     30  CG  ASP A   2      58.782 118.998  12.857  0.00  0.00    +0.000 C 
ATOM     31  OD2 ASP A   2      58.016 119.129  11.874  0.00  0.00    +0.000 OA
BRANCH  30  32
ATOM     32  OD1 ASP A   2      58.419 119.179  14.043  0.00  0.00    +0.000 OA
ATOM     33  HD1 ASP A   2      59.162 119.026  14.631  0.00  0.00    +0.000 HD
ENDBRANCH  30  32
ENDBRANCH  29  30
ENDBRANCH  13  29
ENDBRANCH   6  13
ENDBRANCH   2   9
ENDBRANCH   1   4
BRANCH   1  34
ATOM     34  C   TYR A   4      55.676 114.221  18.351  0.00  0.00    +0.000 C 
ATOM     35  O   TYR A   4      56.235 113.362  19.044  0.00  0.00    +0.000 OA
ATOM     36  N   ASP A   5      54.895 115.180  18.857  0.00  0.00    +0.000 N 
ATOM     37  H   ASP A   5      54.476 115.857  18.219  0.00  0.00    +0.000 HD
BRANCH  36  38
ATOM     38  CA  ASP A   5      54.617 115.299  20.281  0.00  0.00    +0.000 C 
BRANCH  38  39
ATOM     39  C   ASP A   5      53.466 114.383  20.655  0.00  0.00    +0.000 C 
ATOM     40  O   ASP A   5      52.372 114.484  20.092  0.00  0.00    +0.000 OA
ATOM     41  N   LEU A   6      53.685 113.543  21.663  0.00  0.00    +0.000 N 
ATOM     42  H   LEU A   6      54.542 113.632  22.209  0.00  0.00    +0.000 HD
BRANCH  41  43
ATOM     43  CA  LEU A   6      52.726 112.497  22.005  0.00  0.00    +0.000 C 
BRANCH  43  44
ATOM     44  C   LEU A   6      51.710 113.087  22.982  0.00  0.00    +0.000 C 
ATOM     45  O   LEU A   6      51.673 112.782  24.176  0.00  0.00    +0.000 OA
ATOM     46  N   ASN A   7      50.882 113.975  22.432  0.00  0.00    +0.000 N 
ATOM     47  H   ASN A   7      50.978 114.190  21.440  0.00  0.00    +0.000 HD
BRANCH  46  48
ATOM     48  CA  ASN A   7      49.848 114.646  23.200  0.00  0.00    +0.000 C 
BRANCH  48  49
ATOM     49  C   ASN A   7      48.738 115.191  22.313  0.00  0.00    +0.000 C 
ATOM     50  OXT ASN A   7      47.677 115.572  22.804  0.00  0.00    +0.000 OA
BRANCH  49  51
ATOM     51  O   ASN A   7      48.888 115.257  21.094  0.00  0.00    +0.000 OA
ATOM     52  H   ASN A   7      49.759 114.927  20.861  0.00  0.00    +0.000 HD
ENDBRANCH  49  51
ENDBRANCH  48  49
BRANCH  48  53
ATOM     53  CB  ASN A   7      50.451 115.778  24.014  0.00  0.00    +0.000 C 
BRANCH  53  54
ATOM     54  CG  ASN A   7      49.911 115.815  25.403  0.00  0.00    +0.000 C 
ATOM     55  OD1 ASN A   7      48.767 116.225  25.618  0.00  0.00    +0.000 OA
ATOM     56  ND2 ASN A   7      50.710 115.357  26.363  0.00  0.00    +0.000 N 
ATOM     57 HD21 ASN A   7      50.385 115.334  27.329  0.00  0.00    +0.000 HD
ATOM     58 HD22 ASN A   7      51.648 115.029  26.133  0.00  0.00    +0.000 HD
ENDBRANCH  53  54
ENDBRANCH  48  53
ENDBRANCH  46  48
ENDBRANCH  43  44
BRANCH  43  59
ATOM     59  CB  LEU A   6      53.445 111.280  22.573  0.00  0.00    +0.000 C 
BRANCH  59  60
ATOM     60  CG  LEU A   6      54.024 110.330  21.519  0.00  0.00    +0.000 C 
ATOM     61  CD1 LEU A   6      55.051 109.349  22.088  0.00  0.00    +0.000 C 
ATOM     62  CD2 LEU A   6      52.892 109.567  20.861  0.00  0.00    +0.000 C 
ENDBRANCH  59  60
ENDBRANCH  43  59
ENDBRANCH  41  43
ENDBRANCH  38  39
BRANCH  38  63
ATOM     63  CB  ASP A   5      54.259 116.750  20.616  0.00  0.00    +0.000 C 
BRANCH  63  64
ATOM     64  CG  ASP A   5      54.064 116.997  22.114  0.00  0.00    +0.000 C 
ATOM     65  OD1 ASP A   5      53.144 116.394  22.711  0.00  0.00    +0.000 OA
BRANCH  64  66
ATOM     66  OD2 ASP A   5      54.813 117.818  22.692  0.00  0.00    +0.000 OA
ATOM     67  HD2 ASP A   5      55.449 118.167  22.063  0.00  0.00    +0.000 HD
ENDBRANCH  64  66
ENDBRANCH  63  64
ENDBRANCH  38  63
ENDBRANCH  36  38
ENDBRANCH   1  34
BRANCH   1  68
ATOM     68  CB  TYR A   4      55.234 112.968  16.210  0.00  0.00    +0.000 C 
BRANCH  68  69
ATOM     69  CG  TYR A   4      53.758 112.784  16.526  0.00  0.00    +0.000 A 
ATOM     70  CD1 TYR A   4      52.823 113.714  16.115  0.00  0.00    +0.000 A 
ATOM     71  CD2 TYR A   4      53.306 111.692  17.257  0.00  0.00    +0.000 A 
ATOM     72  CE1 TYR A   4      51.489 113.559  16.409  0.00  0.00    +0.000 A 
ATOM     73  CE2 TYR A   4      51.960 111.534  17.559  0.00  0.00    +0.000 A 
ATOM     74  CZ  TYR A   4      51.064 112.477  17.129  0.00  0.00    +0.000 A 
BRANCH  74  75
ATOM     75  OH  TYR A   4      49.728 112.342  17.411  0.00  0.00    +0.000 OA
ATOM     76  HH  TYR A   4      49.589 111.539  17.919  0.00  0.00    +0.000 HD
ENDBRANCH  74  75
ENDBRANCH  68  69
ENDBRANCH   1  68
TORSDOF 31
