REMARK  Name = 6ibx_ligand
REMARK  7 active torsions:
REMARK  status: ('A' for Active; 'I' for Inactive)
REMARK    1  A    between atoms: N_4  and  C_5
REMARK    2  A    between atoms: C_7  and  N_8
REMARK    3  A    between atoms: C_9  and  C_11
REMARK    4  A    between atoms: C_16  and  N_17
REMARK    5  A    between atoms: N_17  and  C_18
REMARK    6  A    between atoms: C_27  and  C_28
REMARK    7  A    between atoms: N_31  and  C_32
REMARK                            x       y       z     vdW  Elec       q    Type
REMARK                         _______ _______ _______ _____ _____    ______ ____
ROOT
ATOM      1  N   UNL     1      90.124  47.763 265.956  0.00  0.00    +0.000 N 
ATOM      2  H   UNL     1      89.410  48.102 266.601  0.00  0.00    +0.000 HD
ENDROOT
BRANCH   1   3
ATOM      3  C   UNL     1      91.425  47.969 266.257  0.00  0.00    +0.000 A 
ATOM      4  C   UNL     1      91.757  49.181 266.857  0.00  0.00    +0.000 A 
ATOM      5  C   UNL     1      92.429  46.993 266.098  0.00  0.00    +0.000 A 
ATOM      6  C   UNL     1      93.725  47.272 266.511  0.00  0.00    +0.000 A 
ATOM      7  N   UNL     1      94.709  46.349 266.339  0.00  0.00    +0.000 NA
ATOM      8  C   UNL     1      96.028  46.627 266.728  0.00  0.00    +0.000 A 
ATOM      9  C   UNL     1      96.324  47.847 267.330  0.00  0.00    +0.000 A 
ATOM     10  N   UNL     1      95.317  48.777 267.484  0.00  0.00    +0.000 NA
ATOM     11  C   UNL     1      94.052  48.514 267.069  0.00  0.00    +0.000 A 
ATOM     12  C   UNL     1      93.055  49.464 267.261  0.00  0.00    +0.000 A 
BRANCH  12  13
ATOM     13  C   UNL     1      93.320  50.704 267.883  0.00  0.00    +0.000 A 
ATOM     14  C   UNL     1      92.585  51.093 268.995  0.00  0.00    +0.000 A 
ATOM     15  C   UNL     1      92.799  52.269 269.584  0.00  0.00    +0.000 A 
ATOM     16  N   UNL     1      92.212  52.851 270.623  0.00  0.00    +0.000 N 
ATOM     17  C   UNL     1      91.159  52.288 271.462  0.00  0.00    +0.000 C 
ATOM     18  C   UNL     1      92.797  54.039 270.848  0.00  0.00    +0.000 A 
ATOM     19  C   UNL     1      93.744  54.223 269.926  0.00  0.00    +0.000 A 
ATOM     20  C   UNL     1      93.749  53.111 269.144  0.00  0.00    +0.000 A 
ATOM     21  C   UNL     1      94.491  52.778 268.082  0.00  0.00    +0.000 A 
ATOM     22  C   UNL     1      94.309  51.561 267.440  0.00  0.00    +0.000 A 
ENDBRANCH  12  13
ENDBRANCH   1   3
BRANCH   1  28
ATOM     23  C   UNL     1      88.413  46.648 264.789  0.00  0.00    +0.000 A 
ATOM     24  C   UNL     1      87.982  46.026 263.621  0.00  0.00    +0.000 A 
ATOM     25  C   UNL     1      88.810  45.862 262.520  0.00  0.00    +0.000 A 
ATOM     26  N   UNL     1      90.122  46.320 262.572  0.00  0.00    +0.000 NA
ATOM     27  C   UNL     1      90.569  46.952 263.730  0.00  0.00    +0.000 A 
ATOM     28  C   UNL     1      89.735  47.124 264.832  0.00  0.00    +0.000 A 
BRANCH  23  30
ATOM     29  N   UNL     1      86.584  45.830 266.062  0.00  0.00    +0.000 N 
ATOM     30  C   UNL     1      87.554  46.751 265.903  0.00  0.00    +0.000 C 
ATOM     31  O   UNL     1      87.795  47.540 266.810  0.00  0.00    +0.000 OA
ATOM     32  H   UNL     1      86.443  45.086 265.379  0.00  0.00    +0.000 HD
BRANCH  29  39
ATOM     33  C   UNL     1      84.429  46.621 266.937  0.00  0.00    +0.000 C 
ATOM     34  C   UNL     1      83.495  45.705 266.157  0.00  0.00    +0.000 C 
ATOM     35  C   UNL     1      83.276  44.437 266.919  0.00  0.00    +0.000 C 
ATOM     36  N   UNL     1      84.544  43.762 267.212  0.00  0.00    +0.000 N 
ATOM     37  C   UNL     1      84.339  42.618 268.106  0.00  0.00    +0.000 C 
ATOM     38  C   UNL     1      85.515  44.604 267.892  0.00  0.00    +0.000 C 
ATOM     39  C   UNL     1      85.732  45.940 267.264  0.00  0.00    +0.000 C 
ATOM     40  H   UNL     1      84.896  43.491 266.294  0.00  0.00    +0.000 HD
ENDBRANCH  29  39
ENDBRANCH  23  30
ENDBRANCH   1  28
TORSDOF 5
