REMARK  Name = 6rz6_ligand
REMARK  15 active torsions:
REMARK  status: ('A' for Active; 'I' for Inactive)
REMARK    1  A    between atoms: C_1  and  C_3
REMARK    2  A    between atoms: C_1  and  N_12
REMARK    3  A    between atoms: C_2  and  C_11
REMARK    4  A    between atoms: C_3  and  C_4
REMARK    5  A    between atoms: C_4  and  C_6
REMARK    6  A    between atoms: C_6  and  O_37
REMARK    7  A    between atoms: C_10  and  N_13
REMARK    8  A    between atoms: C_15  and  C_21
REMARK    9  A    between atoms: C_18  and  O_39
REMARK   10  A    between atoms: C_19  and  C_20
REMARK   11  A    between atoms: C_19  and  O_39
REMARK   12  A    between atoms: C_20  and  C_22
REMARK   13  A    between atoms: C_21  and  O_35
REMARK   14  A    between atoms: C_22  and  C_23
REMARK   15  A    between atoms: C_23  and  C_24
REMARK                            x       y       z     vdW  Elec       q    Type
REMARK                         _______ _______ _______ _____ _____    ______ ____
ROOT
ATOM      1  C   UNL     1     -24.801  14.662 -19.036  0.00  0.00    +0.000 C 
ATOM      2  N   UNL     1     -23.748  15.293 -19.614  0.00  0.00    +0.000 N 
ATOM      3  O   UNL     1     -25.216  14.913 -17.908  0.00  0.00    +0.000 OA
ATOM      4  H   UNL     1     -23.564  15.033 -20.583  0.00  0.00    +0.000 HD
ENDROOT
BRANCH   2   9
ATOM      5  C   UNL     1     -23.014  16.743 -17.781  0.00  0.00    +0.000 A 
ATOM      6  C   UNL     1     -20.950  17.706 -19.378  0.00  0.00    +0.000 A 
ATOM      7  C   UNL     1     -21.107  18.148 -18.060  0.00  0.00    +0.000 A 
ATOM      8  C   UNL     1     -22.136  17.675 -17.282  0.00  0.00    +0.000 A 
ATOM      9  C   UNL     1     -22.864  16.262 -19.070  0.00  0.00    +0.000 A 
ATOM     10  N   UNL     1     -19.908  18.125 -20.172  0.00  0.00    +0.000 N 
ATOM     11  C   UNL     1     -19.827  17.758 -21.587  0.00  0.00    +0.000 C 
ATOM     12  C   UNL     1     -21.149  17.169 -22.075  0.00  0.00    +0.000 C 
ATOM     13  C   UNL     1     -21.830  16.744 -19.870  0.00  0.00    +0.000 A 
ATOM     14  O   UNL     1     -21.722  16.259 -21.144  0.00  0.00    +0.000 OA
BRANCH  12  15
ATOM     15  C   UNL     1     -20.968  16.422 -23.386  0.00  0.00    +0.000 C 
ATOM     16  O   UNL     1     -20.616  17.030 -24.372  0.00  0.00    +0.000 OA
BRANCH  15  17
ATOM     17  O   UNL     1     -21.169  15.226 -23.424  0.00  0.00    +0.000 OA
ATOM     18  H   UNL     1     -21.439  14.920 -22.555  0.00  0.00    +0.000 HD
ENDBRANCH  15  17
ENDBRANCH  12  15
BRANCH  10  19
ATOM     19  C   UNL     1     -18.756  18.830 -19.588  0.00  0.00    +0.000 C 
BRANCH  19  20
ATOM     20  C   UNL     1     -17.802  17.895 -18.861  0.00  0.00    +0.000 C 
BRANCH  20  21
ATOM     21  C   UNL     1     -16.611  18.627 -18.266  0.00  0.00    +0.000 C 
BRANCH  21  22
ATOM     22  C   UNL     1     -15.776  19.337 -19.312  0.00  0.00    +0.000 C 
ATOM     23  O   UNL     1     -15.696  20.579 -19.264  0.00  0.00    +0.000 OA
BRANCH  22  24
ATOM     24  O   UNL     1     -15.227  18.641 -20.188  0.00  0.00    +0.000 OA
ATOM     25  H   UNL     1     -15.423  17.715 -20.029  0.00  0.00    +0.000 HD
ENDBRANCH  22  24
ENDBRANCH  21  22
ENDBRANCH  20  21
ENDBRANCH  19  20
ENDBRANCH  10  19
ENDBRANCH   2   9
BRANCH   1  26
ATOM     26  C   UNL     1     -25.450  13.589 -19.851  0.00  0.00    +0.000 A 
ATOM     27  C   UNL     1     -24.977  13.173 -21.093  0.00  0.00    +0.000 A 
ATOM     28  C   UNL     1     -25.616  12.170 -21.798  0.00  0.00    +0.000 A 
ATOM     29  C   UNL     1     -26.759  11.581 -21.270  0.00  0.00    +0.000 A 
ATOM     30  C   UNL     1     -27.238  11.987 -20.035  0.00  0.00    +0.000 A 
ATOM     31  C   UNL     1     -26.588  12.982 -19.337  0.00  0.00    +0.000 A 
BRANCH  29  32
ATOM     32  O   UNL     1     -27.452  10.581 -21.900  0.00  0.00    +0.000 OA
BRANCH  32  33
ATOM     33  C   UNL     1     -26.865   9.936 -23.037  0.00  0.00    +0.000 C 
BRANCH  33  34
ATOM     34  C   UNL     1     -27.800   8.840 -23.489  0.00  0.00    +0.000 C 
BRANCH  34  35
ATOM     35  C   UNL     1     -28.126   7.808 -22.411  0.00  0.00    +0.000 C 
BRANCH  35  36
ATOM     36  C   UNL     1     -29.109   6.744 -22.886  0.00  0.00    +0.000 C 
BRANCH  36  37
ATOM     37  C   UNL     1     -29.493   5.833 -21.752  0.00  0.00    +0.000 A 
ATOM     38  C   UNL     1     -28.783   4.669 -21.453  0.00  0.00    +0.000 A 
ATOM     39  C   UNL     1     -29.201   3.874 -20.408  0.00  0.00    +0.000 A 
ATOM     40  C   UNL     1     -30.301   4.159 -19.654  0.00  0.00    +0.000 A 
ATOM     41  C   UNL     1     -31.011   5.305 -19.938  0.00  0.00    +0.000 A 
ATOM     42  C   UNL     1     -30.617   6.117 -20.982  0.00  0.00    +0.000 A 
ATOM     43  F   UNL     1     -28.509   2.742 -20.106  0.00  0.00    +0.000 F 
ATOM     44 CL   UNL     1     -31.574   7.543 -21.293  0.00  0.00    +0.000 Cl
ENDBRANCH  36  37
ENDBRANCH  35  36
ENDBRANCH  34  35
ENDBRANCH  33  34
ENDBRANCH  32  33
ENDBRANCH  29  32
ENDBRANCH   1  26
TORSDOF 15
