REMARK  Name = 6t6a_ligand
REMARK  0 active torsions:
REMARK  status: ('A' for Active; 'I' for Inactive)
REMARK                            x       y       z     vdW  Elec       q    Type
REMARK                         _______ _______ _______ _____ _____    ______ ____
ROOT
ATOM      1  C   UNL     1       5.651  10.502  27.181  0.00  0.00    +0.000 C 
ATOM      2  C   UNL     1       4.578  11.531  27.024  0.00  0.00    +0.000 C 
ATOM      3  C   UNL     1       4.501  12.224  25.858  0.00  0.00    +0.000 C 
ATOM      4  C   UNL     1       5.779   9.761  28.324  0.00  0.00    +0.000 A 
ATOM      5  C   UNL     1       5.067   9.763  29.493  0.00  0.00    +0.000 A 
ATOM      6  C   UNL     1       5.436   8.893  30.499  0.00  0.00    +0.000 A 
ATOM      7  C   UNL     1       6.518   8.041  30.329  0.00  0.00    +0.000 A 
ATOM      8  C   UNL     1       7.239   8.054  29.146  0.00  0.00    +0.000 A 
ATOM      9  C   UNL     1       6.879   8.923  28.126  0.00  0.00    +0.000 A 
ATOM     10  O   UNL     1       3.738  11.777  27.936  0.00  0.00    +0.000 OA
ATOM     11  C   UNL     1       5.262  12.173  24.739  0.00  0.00    +0.000 C 
ATOM     12  C   UNL     1       6.351  11.453  24.345  0.00  0.00    +0.000 C 
ATOM     13  C   UNL     1       7.039  10.518  24.979  0.00  0.00    +0.000 C 
ATOM     14  C   UNL     1       6.671  10.094  26.333  0.00  0.00    +0.000 C 
ATOM     15  N   UNL     1       7.417   9.137  26.896  0.00  0.00    +0.000 NA
ATOM     16 CL   UNL     1       8.648   6.941  28.954  0.00  0.00    +0.000 Cl
ENDROOT
TORSDOF 0
