REMARK  Name = 6qls_ligand
REMARK  13 active torsions:
REMARK  status: ('A' for Active; 'I' for Inactive)
REMARK    1  A    between atoms: C_1  and  O_24
REMARK    2  A    between atoms: C_2  and  C_3
REMARK    3  A    between atoms: C_3  and  O_25
REMARK    4  A    between atoms: C_4  and  S_33
REMARK    5  A    between atoms: C_5  and  S_33
REMARK    6  A    between atoms: C_6  and  O_27
REMARK    7  A    between atoms: C_7  and  O_28
REMARK    8  A    between atoms: C_8  and  O_29
REMARK    9  A    between atoms: C_9  and  C_10
REMARK   10  A    between atoms: C_10  and  O_30
REMARK   11  A    between atoms: C_11  and  O_32
REMARK   12  A    between atoms: C_12  and  N_21
REMARK   13  A    between atoms: C_14  and  C_15
REMARK                            x       y       z     vdW  Elec       q    Type
REMARK                         _______ _______ _______ _____ _____    ______ ____
ROOT
ATOM      1  C   UNL     1     -18.349   6.860  -0.865  0.00  0.00    +0.000 C 
ATOM      2  C   UNL     1     -19.837   6.718  -1.133  0.00  0.00    +0.000 C 
ATOM      3  C   UNL     1     -20.055   9.066  -1.508  0.00  0.00    +0.000 C 
ATOM      4  C   UNL     1     -18.590   9.365  -1.304  0.00  0.00    +0.000 C 
ATOM      5  C   UNL     1     -17.821   8.066  -1.670  0.00  0.00    +0.000 C 
ATOM      6  O   UNL     1     -20.481   7.937  -0.785  0.00  0.00    +0.000 OA
ENDROOT
BRANCH   5   9
ATOM      7  C   UNL     1     -15.686   8.485  -0.255  0.00  0.00    +0.000 A 
ATOM      8  C   UNL     1     -14.300   8.436  -0.635  0.00  0.00    +0.000 A 
ATOM      9  N   UNL     1     -16.392   8.179  -1.476  0.00  0.00    +0.000 N 
ATOM     10  N   UNL     1     -14.333   8.099  -2.004  0.00  0.00    +0.000 NA
ATOM     11  N   UNL     1     -15.520   7.946  -2.453  0.00  0.00    +0.000 NA
BRANCH   8  12
ATOM     12  C   UNL     1     -13.128   8.621   0.174  0.00  0.00    +0.000 A 
ATOM     13  C   UNL     1     -13.189   8.538   1.547  0.00  0.00    +0.000 A 
ATOM     14  C   UNL     1     -12.078   8.689   2.359  0.00  0.00    +0.000 A 
ATOM     15  C   UNL     1     -10.842   8.907   1.786  0.00  0.00    +0.000 A 
ATOM     16  C   UNL     1     -10.736   8.962   0.403  0.00  0.00    +0.000 A 
ATOM     17  C   UNL     1     -11.877   8.823  -0.382  0.00  0.00    +0.000 A 
ENDBRANCH   8  12
ENDBRANCH   5   9
BRANCH   1  18
ATOM     18  O   UNL     1     -18.095   7.112   0.513  0.00  0.00    +0.000 OA
ATOM     19  H   UNL     1     -18.415   6.374   1.036  0.00  0.00    +0.000 HD
ENDBRANCH   1  18
BRANCH   4  20
ATOM     20  O   UNL     1     -18.193  10.369  -2.233  0.00  0.00    +0.000 OA
ATOM     21  H   UNL     1     -18.652  11.188  -2.033  0.00  0.00    +0.000 HD
ENDBRANCH   4  20
BRANCH   2  22
ATOM     22  C   UNL     1     -20.446   5.594  -0.306  0.00  0.00    +0.000 C 
BRANCH  22  23
ATOM     23  O   UNL     1     -21.832   5.479  -0.603  0.00  0.00    +0.000 OA
ATOM     24  H   UNL     1     -22.212   4.770  -0.080  0.00  0.00    +0.000 HD
ENDBRANCH  22  23
ENDBRANCH   2  22
BRANCH   3  25
ATOM     25  S   UNL     1     -21.029  10.486  -0.947  0.00  0.00    +0.000 S 
BRANCH  25  26
ATOM     26  C   UNL     1     -22.728   9.981  -1.266  0.00  0.00    +0.000 C 
ATOM     27  C   UNL     1     -23.657  10.360  -0.093  0.00  0.00    +0.000 C 
ATOM     28  C   UNL     1     -25.106  10.033  -0.450  0.00  0.00    +0.000 C 
ATOM     29  C   UNL     1     -25.493  10.676  -1.868  0.00  0.00    +0.000 C 
ATOM     30  C   UNL     1     -24.476  10.191  -2.895  0.00  0.00    +0.000 C 
ATOM     31  O   UNL     1     -23.178  10.535  -2.491  0.00  0.00    +0.000 OA
BRANCH  27  32
ATOM     32  O   UNL     1     -23.271   9.701   1.098  0.00  0.00    +0.000 OA
ATOM     33  H   UNL     1     -22.359   9.920   1.303  0.00  0.00    +0.000 HD
ENDBRANCH  27  32
BRANCH  28  34
ATOM     34  O   UNL     1     -25.956  10.599   0.540  0.00  0.00    +0.000 OA
ATOM     35  H   UNL     1     -25.739  10.226   1.397  0.00  0.00    +0.000 HD
ENDBRANCH  28  34
BRANCH  29  36
ATOM     36  O   UNL     1     -26.777  10.149  -2.223  0.00  0.00    +0.000 OA
ATOM     37  H   UNL     1     -27.047  10.511  -3.070  0.00  0.00    +0.000 HD
ENDBRANCH  29  36
BRANCH  30  38
ATOM     38  C   UNL     1     -24.717  10.725  -4.335  0.00  0.00    +0.000 C 
BRANCH  38  39
ATOM     39  O   UNL     1     -24.749  12.141  -4.242  0.00  0.00    +0.000 OA
ATOM     40  H   UNL     1     -24.897  12.515  -5.114  0.00  0.00    +0.000 HD
ENDBRANCH  38  39
ENDBRANCH  30  38
ENDBRANCH  25  26
ENDBRANCH   3  25
TORSDOF 13
