REMARK  Name = 6jid_ligand
REMARK  2 active torsions:
REMARK  status: ('A' for Active; 'I' for Inactive)
REMARK    1  A    between atoms: C_12  and  C_14
REMARK    2  A    between atoms: C_22  and  C_25
REMARK                            x       y       z     vdW  Elec       q    Type
REMARK                         _______ _______ _______ _____ _____    ______ ____
ROOT
ATOM      1  O   UNL     1     -58.719  27.843 -27.612  0.00  0.00    +0.000 OA
ATOM      2  O   UNL     1     -60.610  29.857 -23.705  0.00  0.00    +0.000 OA
ATOM      3  C   UNL     1     -61.778  29.596 -24.107  0.00  0.00    +0.000 C 
ATOM      4  N   UNL     1     -61.994  28.666 -25.096  0.00  0.00    +0.000 N 
ATOM      5  C   UNL     1     -63.269  28.042 -25.551  0.00  0.00    +0.000 C 
ATOM      6  C   UNL     1     -63.534  28.365 -27.024  0.00  0.00    +0.000 C 
ATOM      7  C   UNL     1     -60.783  28.266 -25.830  0.00  0.00    +0.000 C 
ATOM      8  C   UNL     1     -61.045  28.101 -27.302  0.00  0.00    +0.000 A 
ATOM      9  C   UNL     1     -59.852  27.871 -28.136  0.00  0.00    +0.000 A 
ATOM     10  N   UNL     1     -60.093  27.734 -29.515  0.00  0.00    +0.000 NA
ATOM     11  C   UNL     1     -61.329  27.774 -29.979  0.00  0.00    +0.000 A 
ATOM     12  N   UNL     1     -62.484  27.963 -29.206  0.00  0.00    +0.000 N 
ATOM     13  C   UNL     1     -62.293  28.145 -27.850  0.00  0.00    +0.000 A 
ATOM     14  H   UNL     1     -63.415  27.966 -29.623  0.00  0.00    +0.000 HD
ENDROOT
BRANCH   3  24
ATOM     15  S   UNL     1     -67.478  32.540 -23.089  0.00  0.00    +0.000 S 
ATOM     16  O   UNL     1     -68.595  31.566 -22.951  0.00  0.00    +0.000 OA
ATOM     17  O   UNL     1     -67.712  33.987 -23.138  0.00  0.00    +0.000 OA
ATOM     18  N   UNL     1     -66.337  32.233 -21.880  0.00  0.00    +0.000 N 
ATOM     19  C   UNL     1     -65.184  31.619 -22.305  0.00  0.00    +0.000 A 
ATOM     20  C   UNL     1     -64.119  31.197 -21.505  0.00  0.00    +0.000 A 
ATOM     21  C   UNL     1     -66.380  31.911 -24.424  0.00  0.00    +0.000 C 
ATOM     22  C   UNL     1     -65.148  31.408 -23.698  0.00  0.00    +0.000 A 
ATOM     23  C   UNL     1     -64.024  30.792 -24.331  0.00  0.00    +0.000 A 
ATOM     24  C   UNL     1     -62.935  30.359 -23.526  0.00  0.00    +0.000 A 
ATOM     25  C   UNL     1     -62.997  30.601 -22.123  0.00  0.00    +0.000 A 
ATOM     26  H   UNL     1     -66.494  32.486 -20.904  0.00  0.00    +0.000 HD
ENDBRANCH   3  24
BRANCH  11  27
ATOM     27  C   UNL     1     -61.566  27.530 -31.420  0.00  0.00    +0.000 A 
ATOM     28  C   UNL     1     -62.591  26.548 -31.678  0.00  0.00    +0.000 A 
ATOM     29  C   UNL     1     -62.932  26.167 -32.985  0.00  0.00    +0.000 A 
ATOM     30  C   UNL     1     -60.814  28.135 -32.456  0.00  0.00    +0.000 A 
ATOM     31  C   UNL     1     -61.172  27.769 -33.774  0.00  0.00    +0.000 A 
ATOM     32  C   UNL     1     -62.199  26.800 -34.024  0.00  0.00    +0.000 A 
ENDBRANCH  11  27
TORSDOF 2
