REMARK  Name = 6jb4_ligand
REMARK  12 active torsions:
REMARK  status: ('A' for Active; 'I' for Inactive)
REMARK    1  A    between atoms: C_1  and  O_7
REMARK    2  A    between atoms: C_2  and  O_8
REMARK    3  A    between atoms: C_3  and  O_9
REMARK    4  A    between atoms: C_4  and  O_10
REMARK    5  A    between atoms: C_5  and  C_6
REMARK    6  A    between atoms: C_6  and  O_12
REMARK    7  A    between atoms: O_7  and  C_16
REMARK    8  A    between atoms: C_13  and  O_19
REMARK    9  A    between atoms: C_14  and  O_20
REMARK   10  A    between atoms: C_15  and  O_21
REMARK   11  A    between atoms: C_17  and  C_18
REMARK   12  A    between atoms: C_18  and  O_23
REMARK                            x       y       z     vdW  Elec       q    Type
REMARK                         _______ _______ _______ _____ _____    ______ ____
ROOT
ATOM      1  O   UNL     1      -6.825 -33.356 -14.955  0.00  0.00    +0.000 OA
ENDROOT
BRANCH   1   2
ATOM      2  C   UNL     1      -6.593 -32.536 -13.822  0.00  0.00    +0.000 C 
ATOM      3  C   UNL     1      -7.967 -32.230 -13.181  0.00  0.00    +0.000 C 
ATOM      4  C   UNL     1      -8.728 -31.269 -14.034  0.00  0.00    +0.000 C 
ATOM      5  C   UNL     1      -7.944 -29.965 -14.255  0.00  0.00    +0.000 C 
ATOM      6  C   UNL     1      -6.629 -30.351 -14.944  0.00  0.00    +0.000 C 
ATOM      7  O   UNL     1      -5.908 -31.311 -14.167  0.00  0.00    +0.000 OA
BRANCH   3   8
ATOM      8  O   UNL     1      -8.773 -33.395 -13.079  0.00  0.00    +0.000 OA
ATOM      9  H   UNL     1      -8.324 -34.047 -12.536  0.00  0.00    +0.000 HD
ENDBRANCH   3   8
BRANCH   4  10
ATOM     10  O   UNL     1      -9.997 -30.933 -13.344  0.00  0.00    +0.000 OA
ATOM     11  H   UNL     1     -10.502 -31.736 -13.197  0.00  0.00    +0.000 HD
ENDBRANCH   4  10
BRANCH   5  12
ATOM     12  O   UNL     1      -8.655 -29.014 -15.025  0.00  0.00    +0.000 OA
ATOM     13  H   UNL     1      -9.473 -28.787 -14.576  0.00  0.00    +0.000 HD
ENDBRANCH   5  12
BRANCH   6  14
ATOM     14  C   UNL     1      -5.723 -29.145 -15.015  0.00  0.00    +0.000 C 
BRANCH  14  15
ATOM     15  O   UNL     1      -4.594 -29.367 -15.902  0.00  0.00    +0.000 OA
ATOM     16  H   UNL     1      -4.043 -28.581 -15.920  0.00  0.00    +0.000 HD
ENDBRANCH  14  15
ENDBRANCH   6  14
ENDBRANCH   1   2
BRANCH   1  20
ATOM     17  C   UNL     1      -5.517 -36.698 -16.820  0.00  0.00    +0.000 C 
ATOM     18  C   UNL     1      -5.308 -36.735 -15.310  0.00  0.00    +0.000 C 
ATOM     19  C   UNL     1      -6.142 -35.673 -14.649  0.00  0.00    +0.000 C 
ATOM     20  C   UNL     1      -5.794 -34.328 -15.240  0.00  0.00    +0.000 C 
ATOM     21  C   UNL     1      -5.719 -34.286 -16.720  0.00  0.00    +0.000 C 
ATOM     22  O   UNL     1      -5.054 -35.422 -17.299  0.00  0.00    +0.000 OA
BRANCH  17  23
ATOM     23  O   UNL     1      -6.823 -36.934 -17.233  0.00  0.00    +0.000 OA
ATOM     24  H   UNL     1      -6.867 -36.893 -18.191  0.00  0.00    +0.000 HD
ENDBRANCH  17  23
BRANCH  18  25
ATOM     25  O   UNL     1      -5.694 -38.058 -14.812  0.00  0.00    +0.000 OA
ATOM     26  H   UNL     1      -5.566 -38.091 -13.861  0.00  0.00    +0.000 HD
ENDBRANCH  18  25
BRANCH  19  27
ATOM     27  O   UNL     1      -5.758 -35.654 -13.277  0.00  0.00    +0.000 OA
ATOM     28  H   UNL     1      -6.268 -34.986 -12.812  0.00  0.00    +0.000 HD
ENDBRANCH  19  27
BRANCH  21  29
ATOM     29  C   UNL     1      -4.715 -33.134 -16.996  0.00  0.00    +0.000 C 
BRANCH  29  30
ATOM     30  O   UNL     1      -4.658 -32.898 -18.331  0.00  0.00    +0.000 OA
ATOM     31  H   UNL     1      -4.037 -32.186 -18.503  0.00  0.00    +0.000 HD
ENDBRANCH  29  30
ENDBRANCH  21  29
ENDBRANCH   1  20
TORSDOF 12
