REMARK  Name = 6qtx_ligand
REMARK  28 active torsions:
REMARK  status: ('A' for Active; 'I' for Inactive)
REMARK    1  A    between atoms: N_1  and  CA_2
REMARK    2  A    between atoms: CA_2  and  C_3
REMARK    3  A    between atoms: N_5  and  CA_6
REMARK    4  A    between atoms: CA_6  and  C_7
REMARK    5  A    between atoms: CA_6  and  CB_9
REMARK    6  A    between atoms: CB_9  and  CG_10
REMARK    7  A    between atoms: N_16  and  CA_17
REMARK    8  A    between atoms: CA_17  and  C_18
REMARK    9  A    between atoms: N_20  and  CA_21
REMARK   10  A    between atoms: CA_21  and  C_22
REMARK   11  A    between atoms: CA_21  and  CB_24
REMARK   12  A    between atoms: CB_24  and  CG1_25
REMARK   13  A    between atoms: CB_24  and  CG2_26
REMARK   14  A    between atoms: N_27  and  CA_28
REMARK   15  A    between atoms: CA_28  and  C_29
REMARK   16  A    between atoms: CA_28  and  CB_31
REMARK   17  A    between atoms: CB_31  and  CG1_32
REMARK   18  A    between atoms: CB_31  and  CG2_33
REMARK   19  A    between atoms: CA_35  and  C_36
REMARK   20  A    between atoms: N_41  and  CA_42
REMARK   21  A    between atoms: CA_42  and  C_43
REMARK   22  A    between atoms: CA_42  and  CB_45
REMARK   23  A    between atoms: CB_45  and  OG_46
REMARK   24  A    between atoms: N_47  and  CA_48
REMARK   25  A    between atoms: CA_48  and  C_49
REMARK   26  A    between atoms: CA_48  and  CB_51
REMARK   27  A    between atoms: C_49  and  OXT_58
REMARK   28  A    between atoms: CB_51  and  CG_52
REMARK                            x       y       z     vdW  Elec       q    Type
REMARK                         _______ _______ _______ _____ _____    ______ ____
ROOT
ATOM      1  CA  VAL A   5      -8.149   0.973  25.711  0.00  0.00    +0.000 C 
ENDROOT
BRANCH   1   2
ATOM      2  C   VAL A   5      -7.645   2.061  26.655  0.00  0.00    +0.000 C 
ATOM      3  O   VAL A   5      -7.512   1.798  27.864  0.00  0.00    +0.000 OA
ATOM      4  N   PRO A   6      -7.359   3.267  26.171  0.00  0.00    +0.000 N 
ATOM      5  CA  PRO A   6      -6.827   4.328  27.045  0.00  0.00    +0.000 C 
ATOM      6  CB  PRO A   6      -6.498   5.475  26.082  0.00  0.00    +0.000 C 
ATOM      7  CG  PRO A   6      -6.427   4.888  24.756  0.00  0.00    +0.000 C 
ATOM      8  CD  PRO A   6      -7.313   3.678  24.750  0.00  0.00    +0.000 C 
BRANCH   5   9
ATOM      9  C   PRO A   6      -7.813   4.820  28.098  0.00  0.00    +0.000 C 
ATOM     10  O   PRO A   6      -8.988   4.467  28.146  0.00  0.00    +0.000 OA
ATOM     11  N   SER A   7      -7.265   5.701  28.946  0.00  0.00    +0.000 N 
ATOM     12  H   SER A   7      -6.249   5.787  28.954  0.00  0.00    +0.000 HD
BRANCH  11  13
ATOM     13  CA  SER A   7      -8.026   6.543  29.855  0.00  0.00    +0.000 C 
BRANCH  13  14
ATOM     14  C   SER A   7      -7.555   7.991  29.706  0.00  0.00    +0.000 C 
ATOM     15  O   SER A   7      -6.390   8.257  29.380  0.00  0.00    +0.000 OA
ATOM     16  N   PHE A   8      -8.489   8.918  29.916  0.00  0.00    +0.000 N 
ATOM     17  H   PHE A   8      -9.448   8.604  30.061  0.00  0.00    +0.000 HD
BRANCH  16  18
ATOM     18  CA  PHE A   8      -8.227  10.364  29.953  0.00  0.00    +0.000 C 
BRANCH  18  19
ATOM     19  C   PHE A   8      -6.743  10.740  29.995  0.00  0.00    +0.000 C 
ATOM     20  O   PHE A   8      -6.231  11.241  31.003  0.00  0.00    +0.000 OA
BRANCH  19  21
ATOM     21  OXT PHE A   8      -6.002  10.557  29.022  0.00  0.00    +0.000 OA
ATOM     22  HXT PHE A   8      -6.507  10.166  28.305  0.00  0.00    +0.000 HD
ENDBRANCH  19  21
ENDBRANCH  18  19
BRANCH  18  23
ATOM     23  CB  PHE A   8      -8.945  10.970  31.176  0.00  0.00    +0.000 C 
BRANCH  23  24
ATOM     24  CG  PHE A   8      -8.536  10.344  32.487  0.00  0.00    +0.000 A 
ATOM     25  CD1 PHE A   8      -7.650  10.992  33.337  0.00  0.00    +0.000 A 
ATOM     26  CD2 PHE A   8      -9.020   9.100  32.860  0.00  0.00    +0.000 A 
ATOM     27  CE1 PHE A   8      -7.257  10.411  34.531  0.00  0.00    +0.000 A 
ATOM     28  CE2 PHE A   8      -8.627   8.517  34.051  0.00  0.00    +0.000 A 
ATOM     29  CZ  PHE A   8      -7.746   9.177  34.887  0.00  0.00    +0.000 A 
ENDBRANCH  23  24
ENDBRANCH  18  23
ENDBRANCH  16  18
ENDBRANCH  13  14
BRANCH  13  30
ATOM     30  CB  SER A   7      -7.875   6.061  31.313  0.00  0.00    +0.000 C 
BRANCH  30  31
ATOM     31  OG  SER A   7      -8.863   5.095  31.631  0.00  0.00    +0.000 OA
ATOM     32  H   SER A   7      -8.750   4.810  32.541  0.00  0.00    +0.000 HD
ENDBRANCH  30  31
ENDBRANCH  13  30
ENDBRANCH  11  13
ENDBRANCH   5   9
ENDBRANCH   1   2
BRANCH   1  35
ATOM     33  C   VAL A   4      -6.209  -0.496  25.801  0.00  0.00    +0.000 C 
ATOM     34  O   VAL A   4      -5.460   0.392  25.368  0.00  0.00    +0.000 OA
ATOM     35  N   VAL A   5      -7.500  -0.301  26.047  0.00  0.00    +0.000 N 
ATOM     36  H   VAL A   5      -8.048  -1.047  26.475  0.00  0.00    +0.000 HD
BRANCH  33  37
ATOM     37  CA  VAL A   4      -5.673  -1.890  26.103  0.00  0.00    +0.000 C 
BRANCH  37  40
ATOM     38  C   GLY A   3      -5.512  -3.306  24.100  0.00  0.00    +0.000 C 
ATOM     39  O   GLY A   3      -6.611  -3.840  24.311  0.00  0.00    +0.000 OA
ATOM     40  N   VAL A   4      -4.985  -2.394  24.914  0.00  0.00    +0.000 N 
ATOM     41  H   VAL A   4      -4.057  -2.029  24.699  0.00  0.00    +0.000 HD
BRANCH  38  42
ATOM     42  CA  GLY A   3      -4.726  -3.682  22.868  0.00  0.00    +0.000 C 
BRANCH  42  45
ATOM     43  C   PHE A   2      -2.493  -3.976  23.728  0.00  0.00    +0.000 C 
ATOM     44  O   PHE A   2      -2.855  -4.890  24.477  0.00  0.00    +0.000 OA
ATOM     45  N   GLY A   3      -3.326  -3.324  22.931  0.00  0.00    +0.000 N 
ATOM     46  H   GLY A   3      -2.976  -2.559  22.354  0.00  0.00    +0.000 HD
BRANCH  43  47
ATOM     47  CA  PHE A   2      -1.028  -3.559  23.653  0.00  0.00    +0.000 C 
BRANCH  47  50
ATOM     48  C   GLY A   1      -0.975  -2.370  25.757  0.00  0.00    +0.000 C 
ATOM     49  O   GLY A   1      -1.845  -1.573  25.364  0.00  0.00    +0.000 OA
ATOM     50  N   PHE A   2      -0.511  -3.367  25.000  0.00  0.00    +0.000 N 
ATOM     51  H   PHE A   2       0.206  -3.994  25.366  0.00  0.00    +0.000 HD
BRANCH  48  52
ATOM     52  CA  GLY A   1      -0.392  -2.241  27.151  0.00  0.00    +0.000 C 
BRANCH  52  53
ATOM     53  N   GLY A   1      -0.794  -3.329  28.026  0.00  0.00    +0.000 N 
ATOM     54  H1  GLY A   1      -0.377  -3.195  28.947  0.00  0.00    +0.000 HD
ATOM     55  H2  GLY A   1      -1.810  -3.338  28.110  0.00  0.00    +0.000 HD
ATOM     56  H3  GLY A   1      -0.476  -4.215  27.633  0.00  0.00    +0.000 HD
ENDBRANCH  52  53
ENDBRANCH  48  52
ENDBRANCH  47  50
BRANCH  47  57
ATOM     57  CB  PHE A   2      -0.227  -4.611  22.877  0.00  0.00    +0.000 C 
BRANCH  57  58
ATOM     58  CG  PHE A   2      -0.671  -4.747  21.426  0.00  0.00    +0.000 A 
ATOM     59  CD1 PHE A   2      -0.070  -3.998  20.413  0.00  0.00    +0.000 A 
ATOM     60  CD2 PHE A   2      -1.723  -5.584  21.089  0.00  0.00    +0.000 A 
ATOM     61  CE1 PHE A   2      -0.508  -4.100  19.073  0.00  0.00    +0.000 A 
ATOM     62  CE2 PHE A   2      -2.169  -5.693  19.758  0.00  0.00    +0.000 A 
ATOM     63  CZ  PHE A   2      -1.549  -4.947  18.754  0.00  0.00    +0.000 A 
ENDBRANCH  57  58
ENDBRANCH  47  57
ENDBRANCH  43  47
ENDBRANCH  42  45
ENDBRANCH  38  42
ENDBRANCH  37  40
BRANCH  37  64
ATOM     64  CB  VAL A   4      -4.741  -1.863  27.325  0.00  0.00    +0.000 C 
ATOM     65  CG1 VAL A   4      -5.441  -1.219  28.511  0.00  0.00    +0.000 C 
ATOM     66  CG2 VAL A   4      -4.299  -3.268  27.679  0.00  0.00    +0.000 C 
ENDBRANCH  37  64
ENDBRANCH  33  37
ENDBRANCH   1  35
BRANCH   1  67
ATOM     67  CB  VAL A   5      -9.672   0.825  25.798  0.00  0.00    +0.000 C 
ATOM     68  CG1 VAL A   5     -10.348   2.180  25.625  0.00  0.00    +0.000 C 
ATOM     69  CG2 VAL A   5     -10.167  -0.185  24.732  0.00  0.00    +0.000 C 
ENDBRANCH   1  67
TORSDOF 24
