REMARK  Name = 6q4q_ligand
REMARK  34 active torsions:
REMARK  status: ('A' for Active; 'I' for Inactive)
REMARK    1  A    between atoms: C_2  and  C_5
REMARK    2  A    between atoms: C_5  and  C_6
REMARK    3  A    between atoms: C_6  and  C_7
REMARK    4  A    between atoms: C_7  and  N_8
REMARK    5  A    between atoms: C_13  and  C_16
REMARK    6  A    between atoms: C_16  and  C_17
REMARK    7  A    between atoms: C_17  and  C_18
REMARK    8  A    between atoms: C_17  and  C_19
REMARK    9  A    between atoms: C_21  and  C_24
REMARK   10  A    between atoms: C_24  and  C_25
REMARK   11  A    between atoms: C_30  and  O_31
REMARK   12  A    between atoms: C_37  and  C_40
REMARK   13  A    between atoms: C_40  and  C_41
REMARK   14  A    between atoms: C_48  and  C_51
REMARK   15  A    between atoms: C_51  and  C_52
REMARK   16  A    between atoms: C_52  and  C_53
REMARK   17  A    between atoms: C_53  and  C_54
REMARK   18  A    between atoms: C_54  and  N_55
REMARK   19  A    between atoms: C_57  and  C_60
REMARK   20  A    between atoms: C_60  and  C_61
REMARK   21  A    between atoms: C_71  and  C_74
REMARK   22  A    between atoms: C_72  and  O_73
REMARK   23  A    between atoms: C_74  and  C_75
REMARK   24  A    between atoms: C_81  and  C_83
REMARK   25  A    between atoms: C_81  and  N_103
REMARK   26  A    between atoms: C_86  and  N_96
REMARK   27  A    between atoms: C_87  and  C_124
REMARK   28  A    between atoms: C_97  and  C_104
REMARK   29  A    between atoms: O_98  and  C_124
REMARK   30  A    between atoms: N_110  and  C_120
REMARK   31  A    between atoms: N_111  and  C_122
REMARK   32  A    between atoms: C_118  and  C_119
REMARK   33  A    between atoms: C_120  and  C_121
REMARK   34  A    between atoms: C_122  and  C_123
REMARK                            x       y       z     vdW  Elec       q    Type
REMARK                         _______ _______ _______ _____ _____    ______ ____
ROOT
ATOM      1  N   UNL     1     -16.871   4.669 -42.634  0.00  0.00    +0.000 N 
ATOM      2  C   UNL     1     -16.334   3.781 -41.613  0.00  0.00    +0.000 C 
ATOM      3  C   UNL     1     -17.183   2.529 -41.641  0.00  0.00    +0.000 C 
ATOM      4  O   UNL     1     -18.303   2.576 -42.146  0.00  0.00    +0.000 OA
ATOM      5  N   UNL     1     -16.629   1.388 -41.176  0.00  0.00    +0.000 N 
ATOM      6  C   UNL     1     -17.373   0.155 -41.017  0.00  0.00    +0.000 C 
ATOM      7  C   UNL     1     -17.254  -0.150 -39.532  0.00  0.00    +0.000 C 
ATOM      8  O   UNL     1     -16.129  -0.275 -39.012  0.00  0.00    +0.000 OA
ATOM      9  N   UNL     1     -18.409  -0.164 -38.837  0.00  0.00    +0.000 N 
ATOM     10  C   UNL     1     -18.479  -0.373 -37.387  0.00  0.00    +0.000 C 
ATOM     11  C   UNL     1     -17.532   0.574 -36.648  0.00  0.00    +0.000 C 
ATOM     12  O   UNL     1     -16.903   0.203 -35.651  0.00  0.00    +0.000 OA
ATOM     13  N   UNL     1     -17.387   1.774 -37.219  0.00  0.00    +0.000 N 
ATOM     14  C   UNL     1     -16.547   2.843 -36.700  0.00  0.00    +0.000 C 
ATOM     15  C   UNL     1     -15.098   2.874 -37.134  0.00  0.00    +0.000 C 
ATOM     16  O   UNL     1     -14.398   3.840 -36.832  0.00  0.00    +0.000 OA
ATOM     17  N   UNL     1     -14.624   1.819 -37.834  0.00  0.00    +0.000 N 
ATOM     18  C   UNL     1     -13.239   1.795 -38.269  0.00  0.00    +0.000 C 
ATOM     19  C   UNL     1     -13.075   2.470 -39.627  0.00  0.00    +0.000 C 
ATOM     20  O   UNL     1     -13.857   2.202 -40.527  0.00  0.00    +0.000 OA
ATOM     21  N   UNL     1     -11.996   3.211 -39.781  0.00  0.00    +0.000 N 
ATOM     22  C   UNL     1     -11.572   3.763 -41.067  0.00  0.00    +0.000 C 
ATOM     23  C   UNL     1     -10.847   2.616 -41.790  0.00  0.00    +0.000 C 
ATOM     24  O   UNL     1     -10.547   1.562 -41.177  0.00  0.00    +0.000 OA
ATOM     25  N   UNL     1     -10.545   2.818 -43.084  0.00  0.00    +0.000 N 
ATOM     26  C   UNL     1      -9.878   1.801 -43.898  0.00  0.00    +0.000 C 
ATOM     27  C   UNL     1      -8.473   2.200 -44.337  0.00  0.00    +0.000 C 
ATOM     28  O   UNL     1      -8.203   3.390 -44.508  0.00  0.00    +0.000 OA
ATOM     29  N   UNL     1      -7.597   1.202 -44.505  0.00  0.00    +0.000 N 
ATOM     30  C   UNL     1      -6.197   1.448 -44.945  0.00  0.00    +0.000 C 
ATOM     31  C   UNL     1      -5.891   0.625 -46.202  0.00  0.00    +0.000 C 
ATOM     32  O   UNL     1      -5.639   1.257 -47.248  0.00  0.00    +0.000 OA
ATOM     33  N   UNL     1     -15.477   4.882 -46.284  0.00  0.00    +0.000 N 
ATOM     34  C   UNL     1     -15.562   6.246 -45.780  0.00  0.00    +0.000 C 
ATOM     35  C   UNL     1     -16.363   6.231 -44.481  0.00  0.00    +0.000 C 
ATOM     36  C   UNL     1     -13.962  -0.419 -48.381  0.00  0.00    +0.000 A 
ATOM     37  C   UNL     1     -12.599  -0.264 -48.618  0.00  0.00    +0.000 A 
ATOM     38  C   UNL     1     -11.984   0.958 -48.363  0.00  0.00    +0.000 A 
ATOM     39  C   UNL     1     -12.731   2.009 -47.859  0.00  0.00    +0.000 A 
ATOM     40  N   UNL     1     -16.206   3.034 -47.052  0.00  0.00    +0.000 NA
ATOM     41  C   UNL     1     -14.706   0.643 -47.874  0.00  0.00    +0.000 A 
ATOM     42  C   UNL     1     -14.087   1.861 -47.615  0.00  0.00    +0.000 A 
ATOM     43  C   UNL     1     -14.846   2.995 -47.081  0.00  0.00    +0.000 A 
ATOM     44  O   UNL     1     -14.559   4.999 -43.492  0.00  0.00    +0.000 OA
ATOM     45  C   UNL     1     -14.384   4.178 -46.582  0.00  0.00    +0.000 A 
ATOM     46  N   UNL     1     -16.588   4.185 -46.564  0.00  0.00    +0.000 NA
ATOM     47  N   UNL     1      -8.525   1.070 -49.310  0.00  0.00    +0.000 N 
ATOM     48  N   UNL     1      -6.293   1.084 -47.586  0.00  0.00    +0.000 N 
ATOM     49  N   UNL     1      -8.763   2.347 -48.975  0.00  0.00    +0.000 NA
ATOM     50  N   UNL     1     -10.007   2.415 -48.596  0.00  0.00    +0.000 NA
ATOM     51  C   UNL     1     -10.569   1.174 -48.679  0.00  0.00    +0.000 A 
ATOM     52  C   UNL     1      -9.612   0.314 -49.125  0.00  0.00    +0.000 A 
ATOM     53  C   UNL     1      -7.239   0.681 -49.859  0.00  0.00    +0.000 C 
ATOM     54  C   UNL     1      -6.234   0.251 -48.792  0.00  0.00    +0.000 C 
ATOM     55  C   UNL     1     -15.729   5.184 -43.473  0.00  0.00    +0.000 C 
ATOM     56  H   UNL     1     -17.855   4.904 -42.761  0.00  0.00    +0.000 HD
ATOM     57  H   UNL     1     -15.640   1.395 -40.925  0.00  0.00    +0.000 HD
ATOM     58  H   UNL     1     -19.281  -0.022 -39.347  0.00  0.00    +0.000 HD
ATOM     59  H   UNL     1     -17.902   1.953 -38.081  0.00  0.00    +0.000 HD
ATOM     60  H   UNL     1     -15.241   1.038 -38.057  0.00  0.00    +0.000 HD
ATOM     61  H   UNL     1     -11.426   3.410 -38.959  0.00  0.00    +0.000 HD
ATOM     62  H   UNL     1     -10.789   3.711 -43.513  0.00  0.00    +0.000 HD
ATOM     63  H   UNL     1      -7.898   0.244 -44.326  0.00  0.00    +0.000 HD
ATOM     64  H   UNL     1      -7.122   1.539 -47.968  0.00  0.00    +0.000 HD
ENDROOT
BRANCH  54  67
ATOM     65  O   UNL     1      -3.966   0.938 -48.911  0.00  0.00    +0.000 OA
ATOM     66  N   UNL     1      -4.879  -0.025 -50.747  0.00  0.00    +0.000 N 
ATOM     67  C   UNL     1      -4.914   0.416 -49.487  0.00  0.00    +0.000 C 
ATOM     68  H   UNL     1      -5.641  -0.608 -51.092  0.00  0.00    +0.000 HD
BRANCH  66  69
ATOM     69  C   UNL     1      -3.789   0.304 -51.632  0.00  0.00    +0.000 C 
BRANCH  69  72
ATOM     70  O   UNL     1      -2.492  -0.837 -49.984  0.00  0.00    +0.000 OA
ATOM     71  N   UNL     1      -1.378   0.133 -51.677  0.00  0.00    +0.000 N 
ATOM     72  C   UNL     1      -2.489  -0.181 -51.020  0.00  0.00    +0.000 C 
ATOM     73  H   UNL     1      -1.431   0.729 -52.503  0.00  0.00    +0.000 HD
BRANCH  71  74
ATOM     74  C   UNL     1      -0.094  -0.362 -51.233  0.00  0.00    +0.000 C 
BRANCH  74  77
ATOM     75  O   UNL     1      -0.779  -2.599 -51.654  0.00  0.00    +0.000 OA
ATOM     76  N   UNL     1       1.427  -2.178 -51.747  0.00  0.00    +0.000 N 
ATOM     77  C   UNL     1       0.168  -1.815 -51.563  0.00  0.00    +0.000 C 
ATOM     78  H   UNL     1       1.650  -3.147 -51.976  0.00  0.00    +0.000 HD
ATOM     79  H   UNL     1       2.174  -1.489 -51.660  0.00  0.00    +0.000 HD
ENDBRANCH  74  77
ENDBRANCH  71  74
ENDBRANCH  69  72
ENDBRANCH  66  69
ENDBRANCH  54  67
BRANCH  35  81
ATOM     80  C   UNL     1     -17.574   8.273 -43.911  0.00  0.00    +0.000 C 
ATOM     81  N   UNL     1     -16.432   7.584 -43.929  0.00  0.00    +0.000 N 
ATOM     82  O   UNL     1     -18.609   7.853 -44.408  0.00  0.00    +0.000 OA
ATOM     83  H   UNL     1     -15.587   8.011 -43.549  0.00  0.00    +0.000 HD
BRANCH  80  84
ATOM     84  C   UNL     1     -17.539   9.626 -43.227  0.00  0.00    +0.000 C 
BRANCH  84  86
ATOM     85  C   UNL     1     -15.894  10.100 -41.517  0.00  0.00    +0.000 C 
ATOM     86  N   UNL     1     -16.225  10.059 -42.806  0.00  0.00    +0.000 N 
ATOM     87  C   UNL     1     -14.684  10.912 -41.170  0.00  0.00    +0.000 C 
ATOM     88  O   UNL     1     -16.539   9.505 -40.666  0.00  0.00    +0.000 OA
ATOM     89  H   UNL     1     -15.540  10.338 -43.508  0.00  0.00    +0.000 HD
ENDBRANCH  84  86
ENDBRANCH  80  84
ENDBRANCH  35  81
BRANCH  31  90
ATOM     90  O   UNL     1      -5.916  -0.617 -46.088  0.00  0.00    +0.000 OA
ATOM     91  H   UNL     1      -5.710  -1.019 -46.935  0.00  0.00    +0.000 HD
ENDBRANCH  31  90
BRANCH  36  93
ATOM     92  O   UNL     1     -15.819  -1.870 -48.542  0.00  0.00    +0.000 OA
ATOM     93  C   UNL     1     -14.631  -1.699 -48.701  0.00  0.00    +0.000 C 
BRANCH  93  94
ATOM     94  O   UNL     1     -13.851  -2.573 -49.181  0.00  0.00    +0.000 OA
ATOM     95  H   UNL     1     -12.959  -2.220 -49.215  0.00  0.00    +0.000 HD
ENDBRANCH  93  94
ENDBRANCH  36  93
BRANCH  30  96
ATOM     96  C   UNL     1      -5.192   1.149 -43.826  0.00  0.00    +0.000 C 
BRANCH  96  97
ATOM     97  C   UNL     1      -3.774   1.266 -44.275  0.00  0.00    +0.000 C 
ATOM     98  N   UNL     1      -2.999   2.376 -43.999  0.00  0.00    +0.000 NA
ATOM     99  C   UNL     1      -2.997   0.432 -44.999  0.00  0.00    +0.000 C 
ATOM    100  C   UNL     1      -1.801   2.213 -44.520  0.00  0.00    +0.000 C 
ATOM    101  N   UNL     1      -1.774   1.028 -45.140  0.00  0.00    +0.000 NA
ENDBRANCH  96  97
ENDBRANCH  30  96
BRANCH  26 102
ATOM    102  C   UNL     1     -10.723   1.514 -45.118  0.00  0.00    +0.000 C 
BRANCH 102 103
ATOM    103  C   UNL     1     -12.026   0.838 -44.831  0.00  0.00    +0.000 C 
ATOM    104  C   UNL     1     -13.180   1.435 -44.415  0.00  0.00    +0.000 C 
ATOM    105  C   UNL     1     -12.347  -0.537 -45.072  0.00  0.00    +0.000 C 
ATOM    106  N   UNL     1     -14.192   0.508 -44.348  0.00  0.00    +0.000 NA
ATOM    107  C   UNL     1     -13.705  -0.716 -44.725  0.00  0.00    +0.000 C 
ATOM    108  C   UNL     1     -11.601  -1.658 -45.490  0.00  0.00    +0.000 C 
ATOM    109  C   UNL     1     -14.349  -1.958 -44.831  0.00  0.00    +0.000 C 
ATOM    110  C   UNL     1     -12.241  -2.879 -45.618  0.00  0.00    +0.000 C 
ATOM    111  C   UNL     1     -13.593  -3.028 -45.268  0.00  0.00    +0.000 C 
ENDBRANCH 102 103
ENDBRANCH  26 102
BRANCH  22 112
ATOM    112  C   UNL     1     -10.608   4.931 -40.863  0.00  0.00    +0.000 C 
BRANCH 112 113
ATOM    113  C   UNL     1     -11.309   6.239 -40.520  0.00  0.00    +0.000 C 
BRANCH 113 114
ATOM    114  C   UNL     1     -10.363   7.245 -39.879  0.00  0.00    +0.000 C 
BRANCH 114 115
ATOM    115  C   UNL     1      -9.593   8.108 -40.862  0.00  0.00    +0.000 C 
BRANCH 115 116
ATOM    116  N   UNL     1      -8.735   9.112 -40.170  0.00  0.00    +0.000 N 
ATOM    117  H   UNL     1      -8.237   9.669 -40.865  0.00  0.00    +0.000 HD
ATOM    118  H   UNL     1      -9.320   9.722 -39.600  0.00  0.00    +0.000 HD
ATOM    119  H   UNL     1      -8.063   8.630 -39.574  0.00  0.00    +0.000 HD
ENDBRANCH 115 116
ENDBRANCH 114 115
ENDBRANCH 113 114
ENDBRANCH 112 113
ENDBRANCH  22 112
BRANCH  18 120
ATOM    120  C   UNL     1     -12.761   0.339 -38.471  0.00  0.00    +0.000 C 
BRANCH 120 121
ATOM    121  C   UNL     1     -12.661  -0.475 -37.201  0.00  0.00    +0.000 A 
ATOM    122  C   UNL     1     -11.529  -0.394 -36.399  0.00  0.00    +0.000 A 
ATOM    123  C   UNL     1     -13.659  -1.380 -36.860  0.00  0.00    +0.000 A 
ATOM    124  C   UNL     1     -11.422  -1.174 -35.228  0.00  0.00    +0.000 A 
ATOM    125  C   UNL     1     -13.561  -2.142 -35.680  0.00  0.00    +0.000 A 
ATOM    126  C   UNL     1     -12.440  -2.031 -34.889  0.00  0.00    +0.000 A 
ENDBRANCH 120 121
ENDBRANCH  18 120
BRANCH  10 127
ATOM    127  C   UNL     1     -18.267  -1.856 -37.009  0.00  0.00    +0.000 C 
BRANCH 127 128
ATOM    128  C   UNL     1     -19.282  -2.778 -37.639  0.00  0.00    +0.000 A 
ATOM    129  C   UNL     1     -20.622  -2.729 -37.268  0.00  0.00    +0.000 A 
ATOM    130  C   UNL     1     -18.898  -3.725 -38.576  0.00  0.00    +0.000 A 
ATOM    131  C   UNL     1     -21.557  -3.599 -37.822  0.00  0.00    +0.000 A 
ATOM    132  C   UNL     1     -19.820  -4.616 -39.122  0.00  0.00    +0.000 A 
ATOM    133  C   UNL     1     -21.148  -4.543 -38.748  0.00  0.00    +0.000 A 
BRANCH 133 134
ATOM    134  O   UNL     1     -22.065  -5.410 -39.297  0.00  0.00    +0.000 OA
ATOM    135  H   UNL     1     -21.621  -5.995 -39.915  0.00  0.00    +0.000 HD
ENDBRANCH 133 134
ENDBRANCH 127 128
ENDBRANCH  10 127
BRANCH   6 136
ATOM    136  C   UNL     1     -16.840  -1.007 -41.872  0.00  0.00    +0.000 C 
BRANCH 136 137
ATOM    137  C   UNL     1     -17.663  -2.306 -41.827  0.00  0.00    +0.000 C 
ATOM    138  C   UNL     1     -19.135  -2.083 -42.202  0.00  0.00    +0.000 C 
ATOM    139  C   UNL     1     -17.051  -3.366 -42.732  0.00  0.00    +0.000 C 
ENDBRANCH 136 137
ENDBRANCH   6 136
BRANCH   2 140
ATOM    140  C   UNL     1     -16.396   4.485 -40.240  0.00  0.00    +0.000 C 
BRANCH 140 141
ATOM    141  C   UNL     1     -15.399   5.634 -40.099  0.00  0.00    +0.000 C 
BRANCH 141 142
ATOM    142  C   UNL     1     -15.546   6.402 -38.804  0.00  0.00    +0.000 C 
BRANCH 142 143
ATOM    143  N   UNL     1     -14.591   7.509 -38.675  0.00  0.00    +0.000 N 
ATOM    144  C   UNL     1     -13.538   7.515 -37.860  0.00  0.00    +0.000 C 
ATOM    145  N   UNL     1     -13.262   6.454 -37.114  0.00  0.00    +0.000 NA
ATOM    146  N   UNL     1     -12.745   8.581 -37.793  0.00  0.00    +0.000 N 
ATOM    147  H   UNL     1     -14.745   8.335 -39.253  0.00  0.00    +0.000 HD
ATOM    148  H   UNL     1     -13.858   5.627 -37.163  0.00  0.00    +0.000 HD
ATOM    149  H   UNL     1     -11.935   8.576 -37.173  0.00  0.00    +0.000 HD
ATOM    150  H   UNL     1     -12.947   9.403 -38.362  0.00  0.00    +0.000 HD
ENDBRANCH 142 143
ENDBRANCH 141 142
ENDBRANCH 140 141
ENDBRANCH   2 140
TORSDOF 31
