REMARK  Name = 6oxv_ligand
REMARK  20 active torsions:
REMARK  status: ('A' for Active; 'I' for Inactive)
REMARK    1  A    between atoms: C_1  and  C_14
REMARK    2  A    between atoms: C_1  and  C_31
REMARK    3  A    between atoms: C_2  and  C_16
REMARK    4  A    between atoms: C_2  and  N_32
REMARK    5  A    between atoms: C_3  and  O_38
REMARK    6  A    between atoms: C_7  and  C_28
REMARK    7  A    between atoms: C_10  and  S_42
REMARK    8  A    between atoms: C_13  and  C_14
REMARK    9  A    between atoms: C_13  and  N_32
REMARK   10  A    between atoms: C_14  and  C_15
REMARK   11  A    between atoms: C_15  and  C_30
REMARK   12  A    between atoms: C_16  and  C_17
REMARK   13  A    between atoms: C_16  and  O_36
REMARK   14  A    between atoms: C_17  and  C_21
REMARK   15  A    between atoms: C_17  and  N_33
REMARK   16  A    between atoms: C_18  and  O_38
REMARK   17  A    between atoms: C_21  and  C_22
REMARK   18  A    between atoms: C_28  and  C_29
REMARK   19  A    between atoms: C_28  and  O_41
REMARK   20  A    between atoms: N_32  and  S_42
REMARK                            x       y       z     vdW  Elec       q    Type
REMARK                         _______ _______ _______ _____ _____    ______ ____
ROOT
ATOM      1  C   UNL     1      70.993  58.061  14.728  0.00  0.00    +0.000 C 
ENDROOT
BRANCH   1   2
ATOM      2  O   UNL     1      70.906  59.216  13.955  0.00  0.00    +0.000 OA
ATOM      3  H   UNL     1      71.128  59.008  13.044  0.00  0.00    +0.000 HD
ENDBRANCH   1   2
BRANCH   1   4
ATOM      4  C   UNL     1      70.639  58.388  16.187  0.00  0.00    +0.000 C 
BRANCH   4   6
ATOM      5  C   UNL     1      72.628  58.918  17.697  0.00  0.00    +0.000 C 
ATOM      6  N   UNL     1      71.637  59.285  16.707  0.00  0.00    +0.000 N 
ATOM      7  O   UNL     1      72.643  57.866  18.273  0.00  0.00    +0.000 OA
ATOM      8  H   UNL     1      71.647  60.242  16.355  0.00  0.00    +0.000 HD
BRANCH   5   9
ATOM      9  O   UNL     1      73.571  59.929  17.913  0.00  0.00    +0.000 OA
BRANCH   9  13
ATOM     10  C   UNL     1      75.640  60.282  18.656  0.00  0.00    +0.000 C 
ATOM     11  C   UNL     1      74.058  60.805  20.243  0.00  0.00    +0.000 C 
ATOM     12  C   UNL     1      72.439  60.951  20.241  0.00  0.00    +0.000 C 
ATOM     13  C   UNL     1      74.550  59.820  19.039  0.00  0.00    +0.000 C 
ATOM     14  C   UNL     1      74.540  61.936  20.000  0.00  0.00    +0.000 C 
ATOM     15  C   UNL     1      72.148  62.026  19.515  0.00  0.00    +0.000 C 
ATOM     16  O   UNL     1      75.531  61.791  18.862  0.00  0.00    +0.000 OA
ATOM     17  O   UNL     1      73.370  62.855  19.490  0.00  0.00    +0.000 OA
ENDBRANCH   9  13
ENDBRANCH   5   9
ENDBRANCH   4   6
BRANCH   4  18
ATOM     18  C   UNL     1      69.321  59.163  16.270  0.00  0.00    +0.000 C 
BRANCH  18  19
ATOM     19  C   UNL     1      69.065  59.544  17.741  0.00  0.00    +0.000 A 
ATOM     20  C   UNL     1      68.713  58.474  18.753  0.00  0.00    +0.000 A 
ATOM     21  C   UNL     1      68.471  58.829  20.206  0.00  0.00    +0.000 A 
ATOM     22  C   UNL     1      68.554  60.271  20.647  0.00  0.00    +0.000 A 
ATOM     23  C   UNL     1      68.889  61.344  19.640  0.00  0.00    +0.000 A 
ATOM     24  C   UNL     1      69.143  60.987  18.180  0.00  0.00    +0.000 A 
ENDBRANCH  18  19
ENDBRANCH   4  18
ENDBRANCH   1   4
BRANCH   1  25
ATOM     25  C   UNL     1      70.045  56.989  14.183  0.00  0.00    +0.000 C 
BRANCH  25  26
ATOM     26  N   UNL     1      70.426  55.686  14.765  0.00  0.00    +0.000 NA
BRANCH  26  29
ATOM     27  O   UNL     1      69.876  54.182  16.816  0.00  0.00    +0.000 OA
ATOM     28  O   UNL     1      68.449  56.109  16.423  0.00  0.00    +0.000 OA
ATOM     29  S   UNL     1      69.228  55.042  15.817  0.00  0.00    +0.000 S 
BRANCH  29  33
ATOM     30  C   UNL     1      66.364  52.488  13.022  0.00  0.00    +0.000 A 
ATOM     31  C   UNL     1      66.175  53.975  13.095  0.00  0.00    +0.000 A 
ATOM     32  C   UNL     1      67.093  54.797  13.983  0.00  0.00    +0.000 A 
ATOM     33  C   UNL     1      68.149  54.057  14.785  0.00  0.00    +0.000 A 
ATOM     34  C   UNL     1      68.344  52.564  14.718  0.00  0.00    +0.000 A 
ATOM     35  C   UNL     1      67.434  51.765  13.805  0.00  0.00    +0.000 A 
BRANCH  30  36
ATOM     36  C   UNL     1      65.441  51.719  12.087  0.00  0.00    +0.000 C 
ATOM     37  C   UNL     1      65.235  50.310  12.607  0.00  0.00    +0.000 C 
BRANCH  36  38
ATOM     38  O   UNL     1      66.118  51.735  10.878  0.00  0.00    +0.000 OA
ATOM     39  H   UNL     1      65.603  51.266  10.218  0.00  0.00    +0.000 HD
ENDBRANCH  36  38
ENDBRANCH  30  36
ENDBRANCH  29  33
ENDBRANCH  26  29
BRANCH  26  40
ATOM     40  C   UNL     1      71.127  54.710  13.913  0.00  0.00    +0.000 C 
BRANCH  40  41
ATOM     41  C   UNL     1      72.657  54.853  13.995  0.00  0.00    +0.000 C 
BRANCH  41  42
ATOM     42  C   UNL     1      73.060  54.744  15.466  0.00  0.00    +0.000 C 
ATOM     43  C   UNL     1      74.573  54.775  15.720  0.00  0.00    +0.000 C 
ENDBRANCH  41  42
BRANCH  41  44
ATOM     44  C   UNL     1      73.330  53.822  13.058  0.00  0.00    +0.000 C 
ATOM     45  C   UNL     1      72.969  52.395  13.445  0.00  0.00    +0.000 C 
ENDBRANCH  41  44
ENDBRANCH  40  41
ENDBRANCH  26  40
ENDBRANCH  25  26
ENDBRANCH   1  25
TORSDOF 17
