REMARK  Name = 6ahs_ligand
REMARK  5 active torsions:
REMARK  status: ('A' for Active; 'I' for Inactive)
REMARK    1  A    between atoms: C_1  and  S_7
REMARK    2  A    between atoms: C_3  and  C_22
REMARK    3  A    between atoms: C_4  and  C_26
REMARK    4  A    between atoms: C_5  and  C_20
REMARK    5  A    between atoms: S_7  and  N_14
REMARK                            x       y       z     vdW  Elec       q    Type
REMARK                         _______ _______ _______ _____ _____    ______ ____
ROOT
ATOM      1  C   UNL     1     -15.000  26.190  58.744  0.00  0.00    +0.000 C 
ATOM      2  N   UNL     1     -11.783  24.264  54.521  0.00  0.00    +0.000 N 
ATOM      3  C   UNL     1     -11.770  25.352  53.705  0.00  0.00    +0.000 A 
ATOM      4  C   UNL     1     -12.557  24.462  55.640  0.00  0.00    +0.000 A 
ATOM      5  C   UNL     1     -12.985  23.685  56.707  0.00  0.00    +0.000 A 
ATOM      6  C   UNL     1     -13.005  25.784  55.568  0.00  0.00    +0.000 A 
ATOM      7  C   UNL     1     -13.749  26.375  56.581  0.00  0.00    +0.000 A 
ATOM      8  C   UNL     1     -14.145  25.595  57.661  0.00  0.00    +0.000 A 
ATOM      9  C   UNL     1     -13.776  24.250  57.713  0.00  0.00    +0.000 A 
ATOM     10  C   UNL     1     -12.343  26.342  54.503  0.00  0.00    +0.000 A 
ENDROOT
BRANCH  10  11
ATOM     11  C   UNL     1     -12.714  27.687  53.973  0.00  0.00    +0.000 C 
ATOM     12  C   UNL     1     -14.579  28.938  54.400  0.00  0.00    +0.000 C 
ATOM     13  N   UNL     1     -14.174  27.864  53.861  0.00  0.00    +0.000 NA
ATOM     14  C   UNL     1     -12.360  28.880  54.912  0.00  0.00    +0.000 C 
ATOM     15  N   UNL     1     -13.618  29.603  54.994  0.00  0.00    +0.000 N 
ATOM     16  C   UNL     1     -16.021  29.340  54.452  0.00  0.00    +0.000 C 
ATOM     17  H   UNL     1     -13.737  30.506  55.452  0.00  0.00    +0.000 HD
ENDBRANCH  10  11
BRANCH   2  19
ATOM     18  O   UNL     1     -10.514  22.107  55.122  0.00  0.00    +0.000 OA
ATOM     19  S   UNL     1     -11.178  22.772  54.031  0.00  0.00    +0.000 S 
ATOM     20  O   UNL     1     -10.204  22.940  53.000  0.00  0.00    +0.000 OA
BRANCH  19  21
ATOM     21  C   UNL     1     -12.377  21.808  53.501  0.00  0.00    +0.000 A 
ATOM     22  C   UNL     1     -13.799  19.883  53.847  0.00  0.00    +0.000 A 
ATOM     23  C   UNL     1     -12.744  20.693  54.257  0.00  0.00    +0.000 A 
ATOM     24  C   UNL     1     -13.067  22.072  52.307  0.00  0.00    +0.000 A 
ATOM     25 CL   UNL     1     -12.622  23.448  51.258  0.00  0.00    +0.000 Cl
ATOM     26  C   UNL     1     -14.130  21.276  51.916  0.00  0.00    +0.000 A 
ATOM     27  C   UNL     1     -14.489  20.176  52.679  0.00  0.00    +0.000 A 
ENDBRANCH  19  21
ENDBRANCH   2  19
TORSDOF 3
