REMARK  Name = 6oip_ligand
REMARK  5 active torsions:
REMARK  status: ('A' for Active; 'I' for Inactive)
REMARK    1  A    between atoms: C_1  and  S_20
REMARK    2  A    between atoms: C_8  and  C_9
REMARK    3  A    between atoms: C_12  and  C_16
REMARK    4  A    between atoms: N_18  and  N_19
REMARK    5  A    between atoms: N_19  and  S_20
REMARK                            x       y       z     vdW  Elec       q    Type
REMARK                         _______ _______ _______ _____ _____    ______ ____
ROOT
ATOM      1  N   UNL     1       3.358  10.078  18.693  0.00  0.00    +0.000 NA
ATOM      2  H   UNL     1       2.602  10.145  18.012  0.00  0.00    +0.000 HD
ENDROOT
BRANCH   1   5
ATOM      3  C   UNL     1       5.323  11.419  18.105  0.00  0.00    +0.000 C 
ATOM      4  O   UNL     1       5.565  10.795  17.086  0.00  0.00    +0.000 OA
ATOM      5  N   UNL     1       4.215  11.093  18.958  0.00  0.00    +0.000 N 
ATOM      6  H   UNL     1       4.067  11.650  19.800  0.00  0.00    +0.000 HD
BRANCH   3  11
ATOM      7  C   UNL     1       7.342  14.379  21.549  0.00  0.00    +0.000 C 
ATOM      8  C   UNL     1       7.129  14.048  20.111  0.00  0.00    +0.000 A 
ATOM      9  C   UNL     1       6.377  12.939  19.802  0.00  0.00    +0.000 A 
ATOM     10  F   UNL     1       5.858  12.230  20.803  0.00  0.00    +0.000 F 
ATOM     11  C   UNL     1       6.170  12.588  18.473  0.00  0.00    +0.000 A 
ATOM     12  C   UNL     1       6.719  13.357  17.460  0.00  0.00    +0.000 A 
ATOM     13  C   UNL     1       7.478  14.474  17.775  0.00  0.00    +0.000 A 
ATOM     14  C   UNL     1       7.697  14.812  19.105  0.00  0.00    +0.000 A 
ENDBRANCH   3  11
ENDBRANCH   1   5
BRANCH   1  15
ATOM     15  S   UNL     1       3.658   8.737  19.573  0.00  0.00    +0.000 S 
ATOM     16  O   UNL     1       5.062   8.528  19.783  0.00  0.00    +0.000 OA
ATOM     17  O   UNL     1       3.085   7.608  18.920  0.00  0.00    +0.000 OA
BRANCH  15  18
ATOM     18  C   UNL     1       2.892   8.851  21.157  0.00  0.00    +0.000 A 
ATOM     19  C   UNL     1       1.867   7.976  21.508  0.00  0.00    +0.000 A 
ATOM     20  C   UNL     1       1.248   8.072  22.790  0.00  0.00    +0.000 A 
ATOM     21  C   UNL     1       1.676   9.020  23.675  0.00  0.00    +0.000 A 
ATOM     22  C   UNL     1       1.081   9.123  24.974  0.00  0.00    +0.000 A 
ATOM     23  C   UNL     1       0.045   8.257  25.321  0.00  0.00    +0.000 A 
ATOM     24  C   UNL     1      -0.405   7.294  24.407  0.00  0.00    +0.000 A 
ATOM     25  C   UNL     1       0.187   7.189  23.147  0.00  0.00    +0.000 A 
ATOM     26  C   UNL     1       2.733   9.903  23.308  0.00  0.00    +0.000 A 
ATOM     27  C   UNL     1       3.333   9.815  22.052  0.00  0.00    +0.000 A 
ENDBRANCH  15  18
ENDBRANCH   1  15
TORSDOF 4
