REMARK  Name = 6e5s_ligand
REMARK  10 active torsions:
REMARK  status: ('A' for Active; 'I' for Inactive)
REMARK    1  A    between atoms: C_1  and  C_16
REMARK    2  A    between atoms: C_1  and  C_17
REMARK    3  A    between atoms: C_5  and  C_18
REMARK    4  A    between atoms: C_6  and  C_7
REMARK    5  A    between atoms: C_8  and  C_9
REMARK    6  A    between atoms: C_9  and  C_19
REMARK    7  A    between atoms: C_10  and  C_11
REMARK    8  A    between atoms: C_12  and  C_13
REMARK    9  A    between atoms: C_13  and  C_20
REMARK   10  A    between atoms: C_14  and  C_15
REMARK                            x       y       z     vdW  Elec       q    Type
REMARK                         _______ _______ _______ _____ _____    ______ ____
ROOT
ATOM      1  C   UNL     1       1.323 -15.541  12.426  0.00  0.00    +0.000 C 
ATOM      2  C   UNL     1       0.949 -14.647  13.329  0.00  0.00    +0.000 C 
ENDROOT
BRANCH   1   8
ATOM      3  C   UNL     1       1.242 -14.668   9.956  0.00  0.00    +0.000 C 
ATOM      4  C   UNL     1       2.153 -14.420   8.754  0.00  0.00    +0.000 C 
ATOM      5  C   UNL     1       3.263 -15.451   8.673  0.00  0.00    +0.000 C 
ATOM      6  C   UNL     1       4.166 -15.195   9.865  0.00  0.00    +0.000 C 
ATOM      7  C   UNL     1       3.347 -15.455  11.101  0.00  0.00    +0.000 C 
ATOM      8  C   UNL     1       2.023 -15.219  11.150  0.00  0.00    +0.000 C 
ATOM      9  C   UNL     1       0.128 -15.656   9.596  0.00  0.00    +0.000 C 
ATOM     10  C   UNL     1       0.609 -13.327  10.306  0.00  0.00    +0.000 C 
ATOM     11  C   UNL     1       4.061 -15.999  12.307  0.00  0.00    +0.000 C 
ENDBRANCH   1   8
BRANCH   2  12
ATOM     12  C   UNL     1       0.278 -15.062  14.580  0.00  0.00    +0.000 C 
ATOM     13  C   UNL     1      -1.002 -14.730  14.803  0.00  0.00    +0.000 C 
ATOM     14  C   UNL     1       1.042 -15.812  15.645  0.00  0.00    +0.000 C 
BRANCH  13  15
ATOM     15  C   UNL     1      -1.618 -15.119  16.069  0.00  0.00    +0.000 C 
ATOM     16  C   UNL     1      -2.765 -14.549  16.437  0.00  0.00    +0.000 C 
BRANCH  16  17
ATOM     17  C   UNL     1      -3.376 -14.907  17.726  0.00  0.00    +0.000 C 
ATOM     18  C   UNL     1      -4.540 -14.362  18.131  0.00  0.00    +0.000 C 
ATOM     19  C   UNL     1      -5.123 -14.726  19.425  0.00  0.00    +0.000 C 
ATOM     20  C   UNL     1      -2.634 -15.872  18.587  0.00  0.00    +0.000 C 
ENDBRANCH  16  17
ENDBRANCH  13  15
ENDBRANCH   2  12
TORSDOF 4
