REMARK  Name = 6d08_ligand
REMARK  43 active torsions:
REMARK  status: ('A' for Active; 'I' for Inactive)
REMARK    1  A    between atoms: N_1  and  CA_2
REMARK    2  A    between atoms: CA_2  and  C_3
REMARK    3  A    between atoms: CA_2  and  CB_5
REMARK    4  A    between atoms: N_6  and  CA_7
REMARK    5  A    between atoms: CA_7  and  C_8
REMARK    6  A    between atoms: CA_7  and  CB_10
REMARK    7  A    between atoms: CB_10  and  CG_11
REMARK    8  A    between atoms: CG_11  and  CD_12
REMARK    9  A    between atoms: CD_12  and  CE_13
REMARK   10  A    between atoms: CE_13  and  NZ_14
REMARK   11  A    between atoms: N_15  and  CA_16
REMARK   12  A    between atoms: CA_16  and  C_17
REMARK   13  A    between atoms: CA_16  and  CB_19
REMARK   14  A    between atoms: CB_19  and  CG_20
REMARK   15  A    between atoms: CG_20  and  CD_21
REMARK   16  A    between atoms: N_24  and  CA_25
REMARK   17  A    between atoms: CA_25  and  C_26
REMARK   18  A    between atoms: CA_25  and  CB_28
REMARK   19  A    between atoms: CB_28  and  OG1_29
REMARK   20  A    between atoms: CB_28  and  CG2_30
REMARK   21  A    between atoms: N_31  and  CA_32
REMARK   22  A    between atoms: CA_32  and  C_33
REMARK   23  A    between atoms: CA_32  and  CB_35
REMARK   24  A    between atoms: N_36  and  CA_37
REMARK   25  A    between atoms: CA_37  and  C_38
REMARK   26  A    between atoms: CA_37  and  CB_40
REMARK   27  A    between atoms: CB_40  and  CG_41
REMARK   28  A    between atoms: CG_41  and  CD_42
REMARK   29  A    between atoms: CD_42  and  NE_43
REMARK   30  A    between atoms: N_47  and  C_48
REMARK   31  A    between atoms: C_48  and  C_49
REMARK   32  A    between atoms: C_48  and  C_51
REMARK   33  A    between atoms: C_51  and  C_52
REMARK   34  A    between atoms: C_52  and  C_53
REMARK   35  A    between atoms: C_53  and  C_54
REMARK   36  A    between atoms: C_54  and  N_55
REMARK   37  A    between atoms: N_55  and  C_56
REMARK   38  A    between atoms: C_56  and  C_57
REMARK   39  A    between atoms: N_63  and  C_64
REMARK   40  A    between atoms: C_64  and  C_65
REMARK   41  A    between atoms: C_64  and  C_67
REMARK   42  A    between atoms: C_65  and  O_69
REMARK   43  A    between atoms: C_67  and  O_68
REMARK                            x       y       z     vdW  Elec       q    Type
REMARK                         _______ _______ _______ _____ _____    ______ ____
ROOT
ATOM      1  C   ALA A   5      -1.825 -22.723  -0.224  0.00  0.00    +0.000 C 
ATOM      2  O   ALA A   5      -2.379 -22.570  -1.315  0.00  0.00    +0.000 OA
ATOM      3  N   ARG A   6      -1.553 -21.727   0.610  0.00  0.00    +0.000 N 
ATOM      4  H   ARG A   6      -1.151 -21.942   1.522  0.00  0.00    +0.000 HD
ENDROOT
BRANCH   1   5
ATOM      5  CA  ALA A   5      -1.399 -24.100   0.250  0.00  0.00    +0.000 C 
ATOM      6  CB  ALA A   5       0.057 -24.358  -0.148  0.00  0.00    +0.000 C 
BRANCH   5   9
ATOM      7  C   THR A   4      -2.407 -26.306   0.232  0.00  0.00    +0.000 C 
ATOM      8  O   THR A   4      -1.680 -26.697   1.149  0.00  0.00    +0.000 OA
ATOM      9  N   ALA A   5      -2.307 -25.092  -0.302  0.00  0.00    +0.000 N 
ATOM     10  H   ALA A   5      -2.877 -24.853  -1.113  0.00  0.00    +0.000 HD
BRANCH   7  11
ATOM     11  CA  THR A   4      -3.489 -27.197  -0.361  0.00  0.00    +0.000 C 
BRANCH  11  14
ATOM     12  C   GLN A   3      -3.171 -29.591  -0.733  0.00  0.00    +0.000 C 
ATOM     13  O   GLN A   3      -3.182 -29.458  -1.959  0.00  0.00    +0.000 OA
ATOM     14  N   THR A   4      -3.300 -28.563   0.101  0.00  0.00    +0.000 N 
ATOM     15  H   THR A   4      -3.265 -28.740   1.105  0.00  0.00    +0.000 HD
BRANCH  12  16
ATOM     16  CA  GLN A   3      -3.023 -30.967  -0.097  0.00  0.00    +0.000 C 
BRANCH  16  19
ATOM     17  C   LYS A   2      -5.253 -31.599   0.684  0.00  0.00    +0.000 C 
ATOM     18  O   LYS A   2      -5.115 -30.991   1.750  0.00  0.00    +0.000 OA
ATOM     19  N   GLN A   3      -4.300 -31.661  -0.242  0.00  0.00    +0.000 N 
ATOM     20  H   GLN A   3      -4.467 -32.213  -1.083  0.00  0.00    +0.000 HD
BRANCH  17  21
ATOM     21  CA  LYS A   2      -6.550 -32.335   0.368  0.00  0.00    +0.000 C 
BRANCH  21  24
ATOM     22  C   ALA A   1      -6.169 -34.392   1.596  0.00  0.00    +0.000 C 
ATOM     23  O   ALA A   1      -5.214 -34.695   0.882  0.00  0.00    +0.000 OA
ATOM     24  N   LYS A   2      -6.868 -33.272   1.437  0.00  0.00    +0.000 N 
ATOM     25  H   LYS A   2      -7.638 -33.066   2.073  0.00  0.00    +0.000 HD
BRANCH  22  26
ATOM     26  CA  ALA A   1      -6.613 -35.306   2.732  0.00  0.00    +0.000 C 
ATOM     27  CB  ALA A   1      -6.418 -34.577   4.075  0.00  0.00    +0.000 C 
BRANCH  26  28
ATOM     28  N   ALA A   1      -5.885 -36.568   2.696  0.00  0.00    +0.000 N 
ATOM     29  H1  ALA A   1      -6.037 -37.021   1.795  0.00  0.00    +0.000 HD
ATOM     30  H2  ALA A   1      -4.889 -36.388   2.824  0.00  0.00    +0.000 HD
ATOM     31  H3  ALA A   1      -6.221 -37.175   3.444  0.00  0.00    +0.000 HD
ENDBRANCH  26  28
ENDBRANCH  22  26
ENDBRANCH  21  24
BRANCH  21  32
ATOM     32  CB  LYS A   2      -7.694 -31.341   0.181  0.00  0.00    +0.000 C 
BRANCH  32  33
ATOM     33  CG  LYS A   2      -7.887 -30.865  -1.248  0.00  0.00    +0.000 C 
BRANCH  33  34
ATOM     34  CD  LYS A   2      -9.145 -30.021  -1.372  0.00  0.00    +0.000 C 
BRANCH  34  35
ATOM     35  CE  LYS A   2      -9.655 -30.003  -2.803  0.00  0.00    +0.000 C 
BRANCH  35  36
ATOM     36  NZ  LYS A   2     -10.901 -29.199  -2.939  0.00  0.00    +0.000 N 
ATOM     37  HZ1 LYS A   2     -11.209 -29.213  -3.911  0.00  0.00    +0.000 HD
ATOM     38  HZ2 LYS A   2     -11.628 -29.598  -2.345  0.00  0.00    +0.000 HD
ATOM     39  HZ3 LYS A   2     -10.717 -28.237  -2.653  0.00  0.00    +0.000 HD
ENDBRANCH  35  36
ENDBRANCH  34  35
ENDBRANCH  33  34
ENDBRANCH  32  33
ENDBRANCH  21  32
ENDBRANCH  17  21
ENDBRANCH  16  19
BRANCH  16  40
ATOM     40  CB  GLN A   3      -1.897 -31.769  -0.739  0.00  0.00    +0.000 C 
BRANCH  40  41
ATOM     41  CG  GLN A   3      -1.855 -33.232  -0.316  0.00  0.00    +0.000 C 
BRANCH  41  42
ATOM     42  CD  GLN A   3      -1.581 -33.413   1.165  0.00  0.00    +0.000 C 
ATOM     43  OE1 GLN A   3      -0.520 -33.039   1.663  0.00  0.00    +0.000 OA
ATOM     44  NE2 GLN A   3      -2.539 -33.993   1.877  0.00  0.00    +0.000 N 
ATOM     45 HE21 GLN A   3      -2.410 -34.144   2.878  0.00  0.00    +0.000 HD
ATOM     46 HE22 GLN A   3      -3.404 -34.288   1.424  0.00  0.00    +0.000 HD
ENDBRANCH  41  42
ENDBRANCH  40  41
ENDBRANCH  16  40
ENDBRANCH  12  16
ENDBRANCH  11  14
BRANCH  11  47
ATOM     47  CB  THR A   4      -4.875 -26.650   0.019  0.00  0.00    +0.000 C 
ATOM     48  CG2 THR A   4      -5.976 -27.604  -0.421  0.00  0.00    +0.000 C 
BRANCH  47  49
ATOM     49  OG1 THR A   4      -4.947 -26.472   1.439  0.00  0.00    +0.000 OA
ATOM     50  HG1 THR A   4      -5.813 -26.131   1.674  0.00  0.00    +0.000 HD
ENDBRANCH  47  49
ENDBRANCH  11  47
ENDBRANCH   7  11
ENDBRANCH   5   9
ENDBRANCH   1   5
BRANCH   3  51
ATOM     51  CA  ARG A   6      -1.811 -20.340   0.263  0.00  0.00    +0.000 C 
BRANCH  51  52
ATOM     52  C   ARG A   6      -0.696 -19.835  -0.645  0.00  0.00    +0.000 C 
ATOM     53  O   ARG A   6       0.470 -20.186  -0.461  0.00  0.00    +0.000 OA
ATOM     54  N   UNK A   7      -1.054 -19.019  -1.630  0.00  0.00    +0.000 N 
ATOM     55  H   UNK A   7      -2.033 -18.749  -1.727  0.00  0.00    +0.000 HD
BRANCH  54  56
ATOM     56  C   UNK A   7      -0.048 -18.490  -2.598  0.00  0.00    +0.000 C 
BRANCH  56  57
ATOM     57  C   UNK A   7       0.100 -17.006  -2.420  0.00  0.00    +0.000 C 
ATOM     58  O   UNK A   7      -0.859 -16.254  -2.590  0.00  0.00    +0.000 OA
ATOM     59  N   UNK A   8       1.307 -16.573  -2.068  0.00  0.00    +0.000 N 
ATOM     60  H   UNK A   8       2.050 -17.252  -1.904  0.00  0.00    +0.000 HD
BRANCH  59  61
ATOM     61  C   UNK A   8       1.596 -15.151  -1.910  0.00  0.00    +0.000 C 
BRANCH  61  62
ATOM     62  C   UNK A   8       2.107 -14.550  -3.214  0.00  0.00    +0.000 C 
ATOM     63  O   UNK A   8       2.638 -15.259  -4.067  0.00  0.00    +0.000 OA
BRANCH  62  64
ATOM     64  O   UNK A   8       1.997 -13.345  -3.436  0.00  0.00    +0.000 OA
ATOM     65  H   UNK A   8       1.567 -12.921  -2.689  0.00  0.00    +0.000 HD
ENDBRANCH  62  64
ENDBRANCH  61  62
BRANCH  61  66
ATOM     66  C   UNK A   8       2.618 -14.926  -0.794  0.00  0.00    +0.000 C 
BRANCH  66  67
ATOM     67  O   UNK A   8       2.039 -15.144   0.481  0.00  0.00    +0.000 OA
ATOM     68  H   UNK A   8       2.700 -14.996   1.161  0.00  0.00    +0.000 HD
ENDBRANCH  66  67
ENDBRANCH  61  66
ENDBRANCH  59  61
ENDBRANCH  56  57
BRANCH  56  69
ATOM     69  C   UNK A   7      -0.462 -18.824  -4.030  0.00  0.00    +0.000 C 
BRANCH  69  70
ATOM     70  C   UNK A   7       0.546 -18.300  -5.047  0.00  0.00    +0.000 C 
BRANCH  70  71
ATOM     71  C   UNK A   7       0.013 -18.409  -6.475  0.00  0.00    +0.000 C 
BRANCH  71  72
ATOM     72  C   UNK A   7      -0.133 -19.859  -6.920  0.00  0.00    +0.000 C 
BRANCH  72  73
ATOM     73  N   UNK A   7      -0.560 -19.983  -8.304  0.00  0.00    +0.000 N 
ATOM     74  H   UNK A   7       0.151 -19.598  -8.926  0.00  0.00    +0.000 HD
ATOM     75  H   UNK A   7      -1.427 -19.466  -8.451  0.00  0.00    +0.000 HD
BRANCH  73  76
ATOM     76  C   UNK A   7      -0.764 -21.390  -8.592  0.00  0.00    +0.000 C 
BRANCH  76  77
ATOM     77  C   UNK A   7      -1.036 -21.706 -10.047  0.00  0.00    +0.000 A 
ATOM     78  C   UNK A   7      -1.712 -22.877 -10.374  0.00  0.00    +0.000 A 
ATOM     79  C   UNK A   7      -1.971 -23.189 -11.703  0.00  0.00    +0.000 A 
ATOM     80  C   UNK A   7      -1.553 -22.330 -12.713  0.00  0.00    +0.000 A 
ATOM     81  C   UNK A   7      -0.875 -21.160 -12.388  0.00  0.00    +0.000 A 
ATOM     82  C   UNK A   7      -0.616 -20.848 -11.057  0.00  0.00    +0.000 A 
ENDBRANCH  76  77
ENDBRANCH  73  76
ENDBRANCH  72  73
ENDBRANCH  71  72
ENDBRANCH  70  71
ENDBRANCH  69  70
ENDBRANCH  56  69
ENDBRANCH  54  56
ENDBRANCH  51  52
BRANCH  51  83
ATOM     83  CB  ARG A   6      -1.915 -19.484   1.527  0.00  0.00    +0.000 C 
BRANCH  83  84
ATOM     84  CG  ARG A   6      -2.369 -18.057   1.292  0.00  0.00    +0.000 C 
BRANCH  84  85
ATOM     85  CD  ARG A   6      -2.620 -17.342   2.612  0.00  0.00    +0.000 C 
BRANCH  85  86
ATOM     86  NE  ARG A   6      -3.044 -15.960   2.414  0.00  0.00    +0.000 N 
ATOM     87  CZ  ARG A   6      -2.212 -14.926   2.355  0.00  0.00    +0.000 C 
ATOM     88  NH1 ARG A   6      -2.684 -13.701   2.171  0.00  0.00    +0.000 NA
ATOM     89  NH2 ARG A   6      -0.905 -15.117   2.481  0.00  0.00    +0.000 N 
ATOM     90  HE  ARG A   6      -4.042 -15.776   2.315  0.00  0.00    +0.000 HD
ATOM     91  HH1 ARG A   6      -3.688 -13.551   2.074  0.00  0.00    +0.000 HD
ATOM     92 HH21 ARG A   6      -0.267 -14.323   2.436  0.00  0.00    +0.000 HD
ATOM     93 HH22 ARG A   6      -0.538 -16.058   2.623  0.00  0.00    +0.000 HD
ENDBRANCH  85  86
ENDBRANCH  84  85
ENDBRANCH  83  84
ENDBRANCH  51  83
ENDBRANCH   3  51
TORSDOF 40
